taskid: 0 hostname: ip-172-31-0-107
Quilting with   1 groups of   0 I/O tasks.
 Ntasks in X           48 , ntasks in Y           48
--- WARNING: traj_opt is zero, but num_traj is not zero; setting num_traj to zero.
--- NOTE: sst_update is 0, setting io_form_auxinput4 = 0 and auxinput4_interval = 0 for all domains
--- NOTE: grid_fdda is 0 for domain      1, setting gfdda interval and ending time to 0 for that domain.
--- NOTE: both grid_sfdda and pxlsm_soil_nudge are 0 for domain      1, setting sgfdda interval and ending time to 0 for that domain.
--- NOTE: obs_nudge_opt is 0 for domain      1, setting obs nudging interval and ending time to 0 for that domain.
--- NOTE: bl_pbl_physics /= 4, implies mfshconv must be 0, resetting
Need MYNN PBL for icloud_bl = 1, resetting to 0
*************************************
No physics suite selected.
Physics options will be used directly from the namelist.
*************************************
--- NOTE: RRTMG radiation is in use, setting:  levsiz=59, alevsiz=12, no_src_types=6
--- NOTE: num_soil_layers has been set to      4
WRF V3.9.1.1 MODEL
 *************************************
 Parent domain
 ids,ide,jds,jde            1         950           1         650
 ims,ime,jms,jme           -4          27          -4          21
 ips,ipe,jps,jpe            1          20           1          14
 *************************************
DYNAMICS OPTION: Eulerian Mass Coordinate
   alloc_space_field: domain            1 ,              246239340  bytes allocated
  med_initialdata_input: calling input_input
Timing for processing wrfinput file (stream 0) for domain        1:  106.32854 elapsed seconds
Max map factor in domain 1 =  1.40. Scale the dt in the model accordingly.
INPUT LandUse = "USGS"
 LANDUSE TYPE = "USGS" FOUND          33  CATEGORIES           2  SEASONS WATER CATEGORY =           16  SNOW CATEGORY =           24
INITIALIZE THREE Noah LSM RELATED TABLES
 LANDUSE TYPE = USGS FOUND          27  CATEGORIES
 INPUT SOIL TEXTURE CLASSIFICATION = STAS
 SOIL TEXTURE CLASSIFICATION = STAS FOUND          19  CATEGORIES
*****************************************************************
  __          _______  ______       _____  _____ _    _ _____
  \ \        / /  __ \|  ____|     / ____|/ ____| |  | |  __ \
   \ \  /\  / /| |__) | |__ ______| |  __| |    | |__| | |__) |
    \ \/  \/ / |  _  /|  __|______| | |_ | |    |  __  |  ___/
     \  /\  /  | | \ \| |         | |__| | |____| |  | | |
      \/  \/   |_|  \_\_|          \_____|\_____|_|  |_|_|
*****************************************************************
         WRF-GC MODEL, VERSION 1811.11 - WRF BINDINGS
 For errors, suggestions & feedback email linhaipeng@pku.edu.cn
*****************************************************************
    This is domain            1
 %%%%%%%%%%%%%%%%%%%%%%%%%%%%%%%%%%%%%%%%%%%%%%%%%%%%%%%%%%
 %               GEOS-CHEM HIGH PERFORMANCE               %
 %                                                        %
 % This GEOS-Chem column code was based on work by the    %
 % original GCHP authors.                                 %
 %%%%%%%%%%%%%%%%%%%%%%%%%%%%%%%%%%%%%%%%%%%%%%%%%%%%%%%%%%
 Simulation Start Date/Time:    20180101           0
 Simulation End Date/Time:    20180101      120000
 Chemical Timestep (s):   300.0000    
 Dynamics Timestep (s):   300.0000    
 %%% CONFIGURATION FOR DOMAIN           1 %%%
 In-PET LON IDX:           1          20
 In-PET LAT IDX:           1          14
 IM, JM, LM:          20          14          49
 %%% WORLD CONFIGURATION %%%
 World IM, JM, LM:          20          14          49
===============================================================================
G E O S - C H E M   U S E R   I N P U T

READ_INPUT_FILE: Reading input.geos

SIMULATION MENU
---------------
Start time of run           : 19970215 031100
End time of run             : 20180415 040000
Run directory               : ./
Data Directory              : /fsx/
CHEM_INPUTS directory       : /fsx/CHEM_INPUTS/
Resolution-specific dir     : ./
Is this a nested-grid sim?  :     F
Global offsets I0, J0       :     0    0

TIMESTEP MENU
---------------
Transport/Convection [sec]  :   600
Chemistry/Emissions  [sec]  :  1200

TRANSPORT MENU
--------------
Turn on transport?          :     T
Let TPCORE Fill negatives?  :     T
IORD, JORD, KORD for TPCORE?:     3    3    7

CONVECTION MENU
----------------
Turn on cloud convection?   :     T
Turn on PBL mixing?         :     T
Turn on non-local PBL?      :     T

EMISSIONS MENU
--------------
Turn on emissions?          :     T
HEMCO Configuration file    : HEMCO_Config.rc
Set day PBL BrO conc to 1ppt:     F
Use CH4 emissions inventory?:     F
Turn on surface BC for      : 
      --> methane?          :     F
      --> OCS?              :     T
      --> CFCs/HCFCs/halon? :     T
      --> chlorine species? :     T
      --> bromine species?  :     F
      --> N2O?              :     T
Set initial global MRs for  : 
      --> strat. H2O?       :     T
CFC emissions read for year :     0

AEROSOL MENU
------------
Online SULFATE AEROSOLS?    :     T
Metal catalyzed SO2 ox.?    :     T
Online CARBON AEROSOLS?     :     T
Brown Carbon Aerosol?       :     F
Online COMPLEX SOA?         :     F
Semivolatile POA?           :     F
Spatial & seasonal OM/OC?   :     F
Online DUST AEROSOLS?       :     T
Acid uptake on dust?        :     F
Online SEA SALT AEROSOLS?   :     T
Accum  SEA SALT radii [um]  :   0.01 -   0.50
Coarse SEA SALT radii [um]  :   0.50 -   8.00
MARINE ORGANIC AEROSOLS?    :     F
Settle strat. aerosols?     :     T
Online SOLID PSC aerosols?  :     T
Allow hom. NAT nucleation?  :     F
NAT supercooling requirement:   3.00K
Ice supersaturation req.    :  20.00K
Perform PSC het. chemistry? :     T
Use strat. aerosol OD?      :     T
BC Absorption Enhancement?  :     T
Hydrophilic BC AE factor    :   1.50
Hydrophobic BC AE factor    :   1.00

DEPOSITION MENU
---------------
Turn on dry deposition?     :     T
Dry dep over full PBL?      :     F
Turn on wet deposition?     :     T

CHEMISTRY MENU
--------------
Turn on chemistry?          :     T
Use linear. strat. chem?    :     T
 => Use Linoz for O3?       :     T
Enable UCX?                 :     T
Online strat. H2O?          :     T
Online ozone for FAST-JX?   :     T
Ozone from met for FAST-JX? :     T
TOMS/SBUV ozone for FAST-JX?:     F
GAMMA HO2                   : 0.20

NOTE ABOUT OVERHEAD O3 FOR FAST-JX:
 Online O3 from GEOS-Chem will be used
 to weight the O3 column within the
 chemistry grid and O3 from met or TOMS
 will be used outside the chemistry grid.

RADIATION MENU
--------------
AOD output wavelength (nm)  :   550.0
Turn on radiation?          :     F
Consider LW                 :     F
Consider SW                 :     F
Clear-sky/All-sky           :     F/    F
Radiation timestep [sec]    : 10800

OUTPUT MENU
-----------
              1111111111222222222233
     1234567890123456789012345678901
     -------------------------------
JAN--3000000000000000000000000000000
FEB--30000000000000000000000000000
MAR--3000000000000000000000000000000
APR--300000000000000000000000000000
MAY--3000000000000000000000000000000
JUN--300000000000000000000000000000
JUL--3000000000000000000000000000000
AUG--3000000000000000000000000000000
SEP--300000000000000000000000000000
OCT--3000000000000000000000000000000
NOV--300000000000000000000000000000
DEC--3000000000000000000000000000000

GAMAP MENU
---------------
GAMAP "diaginfo.dat"   file : diaginfo.dat
GAMAP "tracerinfo.dat" file : tracerinfo.dat

PLANEFLIGHT MENU
----------------
Turn on planeflight diag?   :     F
Flight track input file     : Planeflight.dat.YYYYMMDD
Output file name            : plane.log.YYYYMMDD

OBSPACK_MENU
----------------
Turn on ObsPack diagnostic? :     F
Suppress logfile output?    :     F
ObsPack input file          : ./obspack_co2_1_OCO2MIP_2018-11-28.YYYYMMDD.nc
ObsPack output file         : GEOSChem.ObsPack.YYYYMMDD_hhmmz.nc4

ND48 STATION TIMESERIES MENU
----------------------------
Turn on ND48 timeseries?    :     F
ND48 timeseries file name   : stations.YYYYMMDD
ND48 save frequency [sec]   :  3600
ND48 timeseries station   1 :   133   29   15    2

ND49 3-D INSTANTANEOUS TIMESERIES MENU
--------------------------------------
Turn on ND49 timeseries?    :     F
ND49 timeseries file name   : tsYYYYMMDD.bpch
ND49 timeseries tracers     :   94
ND49 save frequency [sec]   :  7200
ND49 longitude limits       :    70   30
ND49 latitude  limits       :    23   46
ND49 level     limits       :     1    1

ND50 3-D 24hr AVG TIMESERIES MENU
---------------------------------
Turn on ND50 timeseries?    :     F
ND50 timeseries file name   : ts_24h_avg.YYYYMMDD.bpch
Output as HDF?              :     F
ND50 timeseries tracers     :   82  83  84  85  86  87
ND50 longitude limits       :     1   72
ND50 latitude  limits       :     1   46
ND50 level     limits       :     1    1

ND51 MORNING OR AFTERNOON TIMESERIES MENU
-----------------------------------------
Turn on ND51 timeseries?    :     F
ND51 timeseries file name   : ts_satellite.YYYYMMDD.bpch
Output as HDF?              :     F
ND41 timeseries tracers     :   46 504 506
ND51 hour to write to disk  :   0.0
ND51 averaging period [GMT] :   9.0 11.0
ND51 longitude limits       :     1   72
ND51 latitude  limits       :     1   46
ND51 altitude  limits       :     1   40

ND51b MORNING OR AFTERNOON TIMESERIES MENU
-----------------------------------------
Turn on ND51b timeseries?    :     F
ND51b timeseries file name   : ts_13_15.NA.YYYYMMDD.h5
Output as HDF?               :     F
ND41 timeseries tracers      :   1  4 20 25 26 27 28 29 30 31 32 33 34 35 36 37 38 39 40 41 42 43 44 45 46 47 48 49 50 51 52 53 54 60 61 62 63 64 65 66 72 73 75 82 83 84 85 86 87 93 94 98 99
ND51b hour to write to disk  :   1.0
ND51b averaging period [GMT] :  13.0 15.0
ND51b longitude limits       :     1   72
ND51b latitude  limits       :     1   46
ND51b altitude  limits       :     1    1

ND63 SHIP TIMESERIES MENU
--------------------------------------
Turn on ND63 timeseries?    :     F
ND63 timeseries file name   : paranox_ts.YYYYMMDD.bpch
ND63 timeseries tracers     :   1
ND63 save frequency [sec]   :  7200
ND63 longitude limits       :    70   30
ND63 latitude  limits       :    23   46

BENCHMARK MENU
--------------
Save benchmark diag output?  :     T
File for initial species mass: Ox.mass.initial
File for final species mass  : Ox.mass.final

NESTED GRID MENU
----------------
Save TPCORE BC's at 4x5     :     F
Save TPCORE BC's at 2x25    :     F
Save BC's over North America:     F
Directory with NA BC's      : BC_4x5_NA/
Save BC's over Europe       :     F
Directory with EU BC's      : BC_4x5_EU/
Save BC's over China/SE Asia:     F
Directory with CH BC's      : BC_4x5_CH/
Save BC's over Asia         :     F
Directory with AS BC's      : BC_4x5_AS/
Save BC's over custom region:     F
Directory with custom BC's  : BC_4x5/
Timestep for BC's [sec]     : 10800
LL box of BC region         :     9   26
UR box of BC region         :    29   41
Nested grid window offsets  :     3    3    3    3

SET_TIMESTEPS: setting GEOS-Chem timesteps!
-------------------------------------------
Chemistry  Timestep [sec] :   1200
Convection Timestep [sec] :    600
Dynamics   Timestep [sec] :    600
Emission   Timestep [sec] :   1200
Unit Conv  Timestep [sec] :    600
Diagnostic Timestep [sec] :   1200
Radiation  Timestep [sec] :  10800
 ### GIGC_Stateful_Mod: Root CPU, after READ_INPUT_FILE
     - LINOZ_READ: Reading /fsx/CHEM_INPUTS/Linoz_200910/Linoz_March2007.dat
   11  linoz chem tables - 40d int., w/ rxn175, +CH4,N2O,CFC11,CFC12 LLM climato
 l
  Linoz Data:  O3 climatology :                  z*=10, 12, ..., 58                             2.700E-08 1.083E-05
  Linoz Data:  Temperature climatology :         z*=10, 12, ..., 58                             1.859E+02 2.904E+02
  Linoz Data:  Column O3 above box climalology : z*=10, 12, ..., 58                             7.538E-02 3.770E+02
  Linoz Data:  P-L O3 climatology (mr/s):        z*=10, 12, ..., 58                            -1.590E-10 2.835E-11
  Linoz Data:  d(P-L)/dO3 (1/s) :                z*=10, 12, ..., 58                            -8.386E-04 7.556E-09
  Linoz Data:  d(P-L)/dT (mr/K) :                z*=10, 12, ..., 58                            -5.742E-12 4.615E-14
  Linoz Data:  d(P-L)/d(column O3) (mr/DU) :     z*=10, 12, ..., 58                            -1.921E-12 5.038E-10
$$ Finished Reading Linoz Data $$

 ### GIGC_Stateful_Mod: Root CPU, after LINOZ_READ
  
 ======================
 Contents of  CollList
  
 WetLossLS
 WetLossConv
 StateMet
 StateChm
 ProdLoss
 LevelEdgeDiags
 JValuesLocalNoon
 JValues
 DryDep
 ConcAfterChem
 CloudConvFlux
 Aerosols
 AerosolMass
 Budget
 SpeciesConc
  
  
 ====================
 Contents of DiagList
  
 WetLossLS_?WET?
    state:      DIAG
    metadataID: WETLOSSLS
    registryID: WETLOSSLS
    isWildcard:  T
    wildcard:   WET
  
 WetLossConvFrac_?WET?
    state:      DIAG
    metadataID: WETLOSSCONVFRAC
    registryID: WETLOSSCONVFRAC
    isWildcard:  T
    wildcard:   WET
  
 WetLossConv_?WET?
    state:      DIAG
    metadataID: WETLOSSCONV
    registryID: WETLOSSCONV
    isWildcard:  T
    wildcard:   WET
  
 Met_Z0
    state:      MET
    metadataID: Z0
    registryID: Z0
  
 Met_V10M
    state:      MET
    metadataID: V10M
    registryID: V10M
  
 Met_V
    state:      MET
    metadataID: V
    registryID: V
  
 Met_UVALBEDO
    state:      MET
    metadataID: UVALBEDO
    registryID: UVALBEDO
  
 Met_USTAR
    state:      MET
    metadataID: USTAR
    registryID: USTAR
  
 Met_U10M
    state:      MET
    metadataID: U10M
    registryID: U10M
  
 Met_U
    state:      MET
    metadataID: U
    registryID: U
  
 Met_TV
    state:      MET
    metadataID: TV
    registryID: TV
  
 Met_TSKIN
    state:      MET
    metadataID: TSKIN
    registryID: TSKIN
  
 Met_TS
    state:      MET
    metadataID: TS
    registryID: TS
  
 Met_TropP
    state:      MET
    metadataID: TROPP
    registryID: TROPP
  
 Met_TropLev
    state:      MET
    metadataID: TROPLEV
    registryID: TROPLEV
  
 Met_TropHt
    state:      MET
    metadataID: TROPHT
    registryID: TROPHT
  
 Met_TO3
    state:      MET
    metadataID: TO3
    registryID: TO3
  
 Met_TMPU2
    state:      MET
    metadataID: TMPU2
    registryID: TMPU2
  
 Met_TMPU1
    state:      MET
    metadataID: TMPU1
    registryID: TMPU1
  
 Met_THETA
    state:      MET
    metadataID: THETA
    registryID: THETA
  
 Met_TAUCLW
    state:      MET
    metadataID: TAUCLW
    registryID: TAUCLW
  
 Met_TAUCLI
    state:      MET
    metadataID: TAUCLI
    registryID: TAUCLI
  
 Met_T
    state:      MET
    metadataID: T
    registryID: T
  
 Met_SWGDN
    state:      MET
    metadataID: SWGDN
    registryID: SWGDN
  
 Met_SUNCOSmid
    state:      MET
    metadataID: SUNCOSMID
    registryID: SUNCOSMID
  
 Met_SUNCOS
    state:      MET
    metadataID: SUNCOS
    registryID: SUNCOS
  
 Met_SPHU2
    state:      MET
    metadataID: SPHU2
    registryID: SPHU2
  
 Met_SPHU1
    state:      MET
    metadataID: SPHU1
    registryID: SPHU1
  
 Met_SPHU
    state:      MET
    metadataID: SPHU
    registryID: SPHU
  
 Met_SNOMAS
    state:      MET
    metadataID: SNOMAS
    registryID: SNOMAS
  
 Met_SNODP
    state:      MET
    metadataID: SNODP
    registryID: SNODP
  
 Met_SLP
    state:      MET
    metadataID: SLP
    registryID: SLP
  
 Met_REEVAPLS
    state:      MET
    metadataID: REEVAPLS
    registryID: REEVAPLS
  
 Met_REEVAPCN
    state:      MET
    metadataID: REEVAPCN
    registryID: REEVAPCN
  
 Met_OPTD
    state:      MET
    metadataID: OPTD
    registryID: OPTD
  
 Met_OMEGA
    state:      MET
    metadataID: OMEGA
    registryID: OMEGA
  
 Met_QL
    state:      MET
    metadataID: QL
    registryID: QL
  
 Met_QI
    state:      MET
    metadataID: QI
    registryID: QI
  
 Met_PSC2DRY
    state:      MET
    metadataID: PSC2DRY
    registryID: PSC2DRY
  
 Met_PSC2WET
    state:      MET
    metadataID: PSC2WET
    registryID: PSC2WET
  
 Met_PS2WET
    state:      MET
    metadataID: PS2WET
    registryID: PS2WET
  
 Met_PS2DRY
    state:      MET
    metadataID: PS2DRY
    registryID: PS2DRY
  
 Met_PS1WET
    state:      MET
    metadataID: PS1WET
    registryID: PS1WET
  
 Met_PS1DRY
    state:      MET
    metadataID: PS1DRY
    registryID: PS1DRY
  
 Met_PRECTOT
    state:      MET
    metadataID: PRECTOT
    registryID: PRECTOT
  
 Met_PRECLSC
    state:      MET
    metadataID: PRECLSC
    registryID: PRECLSC
  
 Met_PRECCON
    state:      MET
    metadataID: PRECCON
    registryID: PRECCON
  
 Met_PRECANV
    state:      MET
    metadataID: PRECANV
    registryID: PRECANV
  
 Met_PMIDDRY
    state:      MET
    metadataID: PMIDDRY
    registryID: PMIDDRY
  
 Met_PMID
    state:      MET
    metadataID: PMID
    registryID: PMID
  
 Met_PHIS
    state:      MET
    metadataID: PHIS
    registryID: PHIS
  
 Met_PBLH
    state:      MET
    metadataID: PBLH
    registryID: PBLH
  
 Met_PBLTOPL
    state:      MET
    metadataID: PBLTOPL
    registryID: PBLTOPL
  
 Met_PARDF
    state:      MET
    metadataID: PARDF
    registryID: PARDF
  
 Met_PARDR
    state:      MET
    metadataID: PARDR
    registryID: PARDR
  
 Met_LWI
    state:      MET
    metadataID: LWI
    registryID: LWI
  
 Met_LAI
    state:      MET
    metadataID: LAI
    registryID: LAI
  
 Met_HFLUX
    state:      MET
    metadataID: HFLUX
    registryID: HFLUX
  
 Met_GWETTOP
    state:      MET
    metadataID: GWETTOP
    registryID: GWETTOP
  
 Met_GWETROOT
    state:      MET
    metadataID: GWETROOT
    registryID: GWETROOT
  
 Met_FRSNO
    state:      MET
    metadataID: FRSNO
    registryID: FRSNO
  
 Met_FRSEAICE
    state:      MET
    metadataID: FRSEAICE
    registryID: FRSEAICE
  
 Met_FROCEAN
    state:      MET
    metadataID: FROCEAN
    registryID: FROCEAN
  
 Met_FRLANDIC
    state:      MET
    metadataID: FRLANDIC
    registryID: FRLANDIC
  
 Met_FRLAND
    state:      MET
    metadataID: FRLAND
    registryID: FRLAND
  
 Met_FRLAKE
    state:      MET
    metadataID: FRLAKE
    registryID: FRLAKE
  
 Met_FRCLND
    state:      MET
    metadataID: FRCLND
    registryID: FRCLND
  
 Met_EFLUX
    state:      MET
    metadataID: EFLUX
    registryID: EFLUX
  
 Met_DTRAIN
    state:      MET
    metadataID: DTRAIN
    registryID: DTRAIN
  
 Met_DQRLSAN
    state:      MET
    metadataID: DQRLSAN
    registryID: DQRLSAN
  
 Met_DQRCU
    state:      MET
    metadataID: DQRCU
    registryID: DQRCU
  
 Met_DELP
    state:      MET
    metadataID: DELP
    registryID: DELP
  
 Met_CLDTOPS
    state:      MET
    metadataID: CLDTOPS
    registryID: CLDTOPS
  
 Met_CLDFRC
    state:      MET
    metadataID: CLDFRC
    registryID: CLDFRC
  
 Met_CLDF
    state:      MET
    metadataID: CLDF
    registryID: CLDF
  
 Met_ChemGridLev
    state:      MET
    metadataID: CHEMGRIDLEV
    registryID: CHEMGRIDLEV
  
 Met_BXHEIGHT
    state:      MET
    metadataID: BXHEIGHT
    registryID: BXHEIGHT
  
 Met_AVGW
    state:      MET
    metadataID: AVGW
    registryID: AVGW
  
 Met_AREAM2
    state:      MET
    metadataID: AREAM2
    registryID: AREAM2
  
 Met_ALBD
    state:      MET
    metadataID: ALBD
    registryID: ALBD
  
 Met_AIRVOL
    state:      MET
    metadataID: AIRVOL
    registryID: AIRVOL
  
 Met_AIRDEN
    state:      MET
    metadataID: AIRDEN
    registryID: AIRDEN
  
 Met_AD
    state:      MET
    metadataID: AD
    registryID: AD
  
 Chem_fupdateHOBr
    state:      CHEM
    metadataID: FUPDATEHOBR
    registryID: FUPDATEHOBR
  
 Chem_SO3AQ
    state:      CHEM
    metadataID: SO3AQ
    registryID: SO3AQ
  
 Chem_HSO3AQ
    state:      CHEM
    metadataID: HSO3AQ
    registryID: HSO3AQ
  
 Chem_SSAlkCoarse
    state:      CHEM
    metadataID: SSALKCOARSE
    registryID: SSALKCOARSE
  
 Chem_SSAlkAccum
    state:      CHEM
    metadataID: SSALKACCUM
    registryID: SSALKACCUM
  
 Chem_pHCloud
    state:      CHEM
    metadataID: PHCLOUD
    registryID: PHCLOUD
  
 Chem_BiSulSav
    state:      CHEM
    metadataID: BISULSAV
    registryID: BISULSAV
  
 Chem_AcidPurSav
    state:      CHEM
    metadataID: ACIDPURSAV
    registryID: ACIDPURSAV
  
 Chem_NaRatSav
    state:      CHEM
    metadataID: NARATSAV
    registryID: NARATSAV
  
 Chem_SulRatSav
    state:      CHEM
    metadataID: SULRATSAV
    registryID: SULRATSAV
  
 Chem_WaterSav
    state:      CHEM
    metadataID: WATERSAV
    registryID: WATERSAV
  
 Chem_HplusSav
    state:      CHEM
    metadataID: HPLUSSAV
    registryID: HPLUSSAV
  
 Chem_phSav
    state:      CHEM
    metadataID: PHSAV
    registryID: PHSAV
  
 LossHNO3onSeaSalt
    state:      DIAG
    metadataID: LOSSHNO3ONSEASALT
    registryID: LOSSHNO3ONSEASALT
  
 Loss_?LOS?
    state:      DIAG
    metadataID: LOSS
    registryID: LOSS
    isWildcard:  T
    wildcard:   LOS
  
 ProdSO4fromO3s
    state:      DIAG
    metadataID: PRODSO4FROMO3S
    registryID: PRODSO4FROMO3S
  
 ProdSO4fromSRHObr
    state:      DIAG
    metadataID: PRODSO4FROMSRHOBR
    registryID: PRODSO4FROMSRHOBR
  
 ProdSO4fromSRO3
    state:      DIAG
    metadataID: PRODSO4FROMSRO3
    registryID: PRODSO4FROMSRO3
  
 ProdSO4fromHOBrInCloud
    state:      DIAG
    metadataID: PRODSO4FROMHOBRINCLOUD
    registryID: PRODSO4FROMHOBRINCLOUD
  
 ProdSO4fromO3inSeaSalt
    state:      DIAG
    metadataID: PRODSO4FROMO3INSEASALT
    registryID: PRODSO4FROMO3INSEASALT
  
 ProdSO4fromO3inCloud
    state:      DIAG
    metadataID: PRODSO4FROMO3INCLOUD
    registryID: PRODSO4FROMO3INCLOUD
  
 ProdSO4fromH2O2inCloud
    state:      DIAG
    metadataID: PRODSO4FROMH2O2INCLOUD
    registryID: PRODSO4FROMH2O2INCLOUD
  
 ProdOCPIfromOCPO
    state:      DIAG
    metadataID: PRODOCPIFROMOCPO
    registryID: PRODOCPIFROMOCPO
  
 ProdBCPIfromBCPO
    state:      DIAG
    metadataID: PRODBCPIFROMBCPO
    registryID: PRODBCPIFROMBCPO
  
 Prod_?PRD?
    state:      DIAG
    metadataID: PROD
    registryID: PROD
    isWildcard:  T
    wildcard:   PRD
  
 Met_PFLLSAN
    state:      MET
    metadataID: PFLLSAN
    registryID: PFLLSAN
  
 Met_PFLCU
    state:      MET
    metadataID: PFLCU
    registryID: PFLCU
  
 Met_PFILSAN
    state:      MET
    metadataID: PFILSAN
    registryID: PFILSAN
  
 Met_PFICU
    state:      MET
    metadataID: PFICU
    registryID: PFICU
  
 Met_PEDGEDRY
    state:      MET
    metadataID: PEDGEDRY
    registryID: PEDGEDRY
  
 Met_PEDGE
    state:      MET
    metadataID: PEDGE
    registryID: PEDGE
  
 Met_CMFMC
    state:      MET
    metadataID: CMFMC
    registryID: CMFMC
  
 JNoon_?PHO?
    state:      DIAG
    metadataID: JNOON
    registryID: JNOON
    isWildcard:  T
    wildcard:   PHO
  
 Jval_?PHO?
    state:      DIAG
    metadataID: JVAL
    registryID: JVAL
    isWildcard:  T
    wildcard:   PHO
  
 DryDep_?DRY?
    state:      DIAG
    metadataID: DRYDEP
    registryID: DRYDEP
    isWildcard:  T
    wildcard:   DRY
  
 DryDepChm_?DRY?
    state:      DIAG
    metadataID: DRYDEPCHM
    registryID: DRYDEPCHM
    isWildcard:  T
    wildcard:   DRY
  
 DryDepMix_?DRY?
    state:      DIAG
    metadataID: DRYDEPMIX
    registryID: DRYDEPMIX
    isWildcard:  T
    wildcard:   DRY
  
 DryDepVel_?DRY?
    state:      DIAG
    metadataID: DRYDEPVEL
    registryID: DRYDEPVEL
    isWildcard:  T
    wildcard:   DRY
  
 O3PconcAfterChem
    state:      DIAG
    metadataID: O3PCONCAFTERCHEM
    registryID: O3PCONCAFTERCHEM
  
 O1DconcAfterChem
    state:      DIAG
    metadataID: O1DCONCAFTERCHEM
    registryID: O1DCONCAFTERCHEM
  
 HO2concAfterChem
    state:      DIAG
    metadataID: HO2CONCAFTERCHEM
    registryID: HO2CONCAFTERCHEM
  
 OHconcAfterChem
    state:      DIAG
    metadataID: OHCONCAFTERCHEM
    registryID: OHCONCAFTERCHEM
  
 CloudConvFlux_?ADV?
    state:      DIAG
    metadataID: CLOUDCONVFLUX
    registryID: CLOUDCONVFLUX
    isWildcard:  T
    wildcard:   ADV
  
 Chem_KhetiSLAHOBrHBr
    state:      CHEM
    metadataID: KHETISLAHOBRHBR
    registryID: KHETISLAHOBRHBR
  
 Chem_KhetiSLAHOBrHCl
    state:      CHEM
    metadataID: KHETISLAHOBRHCL
    registryID: KHETISLAHOBRHCL
  
 Chem_KhetiSLAHOClHBr
    state:      CHEM
    metadataID: KHETISLAHOCLHBR
    registryID: KHETISLAHOCLHBR
  
 Chem_KhetiSLAHOClHCl
    state:      CHEM
    metadataID: KHETISLAHOCLHCL
    registryID: KHETISLAHOCLHCL
  
 Chem_KhetiSLABrNO3HCl
    state:      CHEM
    metadataID: KHETISLABRNO3HCL
    registryID: KHETISLABRNO3HCL
  
 Chem_KhetiSLABrNO3H2O
    state:      CHEM
    metadataID: KHETISLABRNO3H2O
    registryID: KHETISLABRNO3H2O
  
 Chem_KhetiSLAClNO3HBr
    state:      CHEM
    metadataID: KHETISLACLNO3HBR
    registryID: KHETISLACLNO3HBR
  
 Chem_KhetiSLAClNO3HCl
    state:      CHEM
    metadataID: KHETISLACLNO3HCL
    registryID: KHETISLACLNO3HCL
  
 Chem_KhetiSLAClNO3H2O
    state:      CHEM
    metadataID: KHETISLACLNO3H2O
    registryID: KHETISLACLNO3H2O
  
 Chem_KhetiSLAN2O5HCl
    state:      CHEM
    metadataID: KHETISLAN2O5HCL
    registryID: KHETISLAN2O5HCL
  
 Chem_KhetiSLAN2O5H2O
    state:      CHEM
    metadataID: KHETISLAN2O5H2O
    registryID: KHETISLAN2O5H2O
  
 Chem_StatePSC
    state:      CHEM
    metadataID: STATEPSC
    registryID: STATEPSC
  
 Chem_WetAeroRadiICEI
    state:      CHEM
    metadataID: WETAERORADIICEI
    registryID: WETAERORADIICEI
  
 Chem_WetAeroRadiBGSULF
    state:      CHEM
    metadataID: WETAERORADIBGSULF
    registryID: WETAERORADIBGSULF
  
 Chem_WetAeroRadiSSC
    state:      CHEM
    metadataID: WETAERORADISSC
    registryID: WETAERORADISSC
  
 Chem_WetAeroRadiSSA
    state:      CHEM
    metadataID: WETAERORADISSA
    registryID: WETAERORADISSA
  
 Chem_WetAeroRadiOC
    state:      CHEM
    metadataID: WETAERORADIOC
    registryID: WETAERORADIOC
  
 Chem_WetAeroRadiBC
    state:      CHEM
    metadataID: WETAERORADIBC
    registryID: WETAERORADIBC
  
 Chem_WetAeroRadiSULF
    state:      CHEM
    metadataID: WETAERORADISULF
    registryID: WETAERORADISULF
  
 Chem_WetAeroRadiMDUST7
    state:      CHEM
    metadataID: WETAERORADIMDUST7
    registryID: WETAERORADIMDUST7
  
 Chem_WetAeroRadiMDUST6
    state:      CHEM
    metadataID: WETAERORADIMDUST6
    registryID: WETAERORADIMDUST6
  
 Chem_WetAeroRadiMDUST5
    state:      CHEM
    metadataID: WETAERORADIMDUST5
    registryID: WETAERORADIMDUST5
  
 Chem_WetAeroRadiMDUST4
    state:      CHEM
    metadataID: WETAERORADIMDUST4
    registryID: WETAERORADIMDUST4
  
 Chem_WetAeroRadiMDUST3
    state:      CHEM
    metadataID: WETAERORADIMDUST3
    registryID: WETAERORADIMDUST3
  
 Chem_WetAeroRadiMDUST2
    state:      CHEM
    metadataID: WETAERORADIMDUST2
    registryID: WETAERORADIMDUST2
  
 Chem_WetAeroRadiMDUST1
    state:      CHEM
    metadataID: WETAERORADIMDUST1
    registryID: WETAERORADIMDUST1
  
 Chem_WetAeroAreaICEI
    state:      CHEM
    metadataID: WETAEROAREAICEI
    registryID: WETAEROAREAICEI
  
 Chem_WetAeroAreaBGSULF
    state:      CHEM
    metadataID: WETAEROAREABGSULF
    registryID: WETAEROAREABGSULF
  
 Chem_WetAeroAreaSSC
    state:      CHEM
    metadataID: WETAEROAREASSC
    registryID: WETAEROAREASSC
  
 Chem_WetAeroAreaSSA
    state:      CHEM
    metadataID: WETAEROAREASSA
    registryID: WETAEROAREASSA
  
 Chem_WetAeroAreaOC
    state:      CHEM
    metadataID: WETAEROAREAOC
    registryID: WETAEROAREAOC
  
 Chem_WetAeroAreaBC
    state:      CHEM
    metadataID: WETAEROAREABC
    registryID: WETAEROAREABC
  
 Chem_WetAeroAreaSULF
    state:      CHEM
    metadataID: WETAEROAREASULF
    registryID: WETAEROAREASULF
  
 Chem_WetAeroAreaMDUST7
    state:      CHEM
    metadataID: WETAEROAREAMDUST7
    registryID: WETAEROAREAMDUST7
  
 Chem_WetAeroAreaMDUST6
    state:      CHEM
    metadataID: WETAEROAREAMDUST6
    registryID: WETAEROAREAMDUST6
  
 Chem_WetAeroAreaMDUST5
    state:      CHEM
    metadataID: WETAEROAREAMDUST5
    registryID: WETAEROAREAMDUST5
  
 Chem_WetAeroAreaMDUST4
    state:      CHEM
    metadataID: WETAEROAREAMDUST4
    registryID: WETAEROAREAMDUST4
  
 Chem_WetAeroAreaMDUST3
    state:      CHEM
    metadataID: WETAEROAREAMDUST3
    registryID: WETAEROAREAMDUST3
  
 Chem_WetAeroAreaMDUST2
    state:      CHEM
    metadataID: WETAEROAREAMDUST2
    registryID: WETAEROAREAMDUST2
  
 Chem_WetAeroAreaMDUST1
    state:      CHEM
    metadataID: WETAEROAREAMDUST1
    registryID: WETAEROAREAMDUST1
  
 Chem_AeroRadiICEI
    state:      CHEM
    metadataID: AERORADIICEI
    registryID: AERORADIICEI
  
 Chem_AeroRadiBGSULF
    state:      CHEM
    metadataID: AERORADIBGSULF
    registryID: AERORADIBGSULF
  
 Chem_AeroRadiSSC
    state:      CHEM
    metadataID: AERORADISSC
    registryID: AERORADISSC
  
 Chem_AeroRadiSSA
    state:      CHEM
    metadataID: AERORADISSA
    registryID: AERORADISSA
  
 Chem_AeroRadiOC
    state:      CHEM
    metadataID: AERORADIOC
    registryID: AERORADIOC
  
 Chem_AeroRadiBC
    state:      CHEM
    metadataID: AERORADIBC
    registryID: AERORADIBC
  
 Chem_AeroRadiSULF
    state:      CHEM
    metadataID: AERORADISULF
    registryID: AERORADISULF
  
 Chem_AeroRadiMDUST7
    state:      CHEM
    metadataID: AERORADIMDUST7
    registryID: AERORADIMDUST7
  
 Chem_AeroRadiMDUST6
    state:      CHEM
    metadataID: AERORADIMDUST6
    registryID: AERORADIMDUST6
  
 Chem_AeroRadiMDUST5
    state:      CHEM
    metadataID: AERORADIMDUST5
    registryID: AERORADIMDUST5
  
 Chem_AeroRadiMDUST4
    state:      CHEM
    metadataID: AERORADIMDUST4
    registryID: AERORADIMDUST4
  
 Chem_AeroRadiMDUST3
    state:      CHEM
    metadataID: AERORADIMDUST3
    registryID: AERORADIMDUST3
  
 Chem_AeroRadiMDUST2
    state:      CHEM
    metadataID: AERORADIMDUST2
    registryID: AERORADIMDUST2
  
 Chem_AeroRadiMDUST1
    state:      CHEM
    metadataID: AERORADIMDUST1
    registryID: AERORADIMDUST1
  
 Chem_AeroAreaICEI
    state:      CHEM
    metadataID: AEROAREAICEI
    registryID: AEROAREAICEI
  
 Chem_AeroAreaBGSULF
    state:      CHEM
    metadataID: AEROAREABGSULF
    registryID: AEROAREABGSULF
  
 Chem_AeroAreaSSC
    state:      CHEM
    metadataID: AEROAREASSC
    registryID: AEROAREASSC
  
 Chem_AeroAreaSSA
    state:      CHEM
    metadataID: AEROAREASSA
    registryID: AEROAREASSA
  
 Chem_AeroAreaOC
    state:      CHEM
    metadataID: AEROAREAOC
    registryID: AEROAREAOC
  
 Chem_AeroAreaBC
    state:      CHEM
    metadataID: AEROAREABC
    registryID: AEROAREABC
  
 Chem_AeroAreaSULF
    state:      CHEM
    metadataID: AEROAREASULF
    registryID: AEROAREASULF
  
 Chem_AeroAreaMDUST7
    state:      CHEM
    metadataID: AEROAREAMDUST7
    registryID: AEROAREAMDUST7
  
 Chem_AeroAreaMDUST6
    state:      CHEM
    metadataID: AEROAREAMDUST6
    registryID: AEROAREAMDUST6
  
 Chem_AeroAreaMDUST5
    state:      CHEM
    metadataID: AEROAREAMDUST5
    registryID: AEROAREAMDUST5
  
 Chem_AeroAreaMDUST4
    state:      CHEM
    metadataID: AEROAREAMDUST4
    registryID: AEROAREAMDUST4
  
 Chem_AeroAreaMDUST3
    state:      CHEM
    metadataID: AEROAREAMDUST3
    registryID: AEROAREAMDUST3
  
 Chem_AeroAreaMDUST2
    state:      CHEM
    metadataID: AEROAREAMDUST2
    registryID: AEROAREAMDUST2
  
 Chem_AeroAreaMDUST1
    state:      CHEM
    metadataID: AEROAREAMDUST1
    registryID: AEROAREAMDUST1
  
 AerSurfAreaPolarStratCloud
    state:      DIAG
    metadataID: AERSURFAREAPOLARSTRATCLOUD
    registryID: AERSURFAREAPOLARSTRATCLOUD
  
 AerSurfAreaStratLiquid
    state:      DIAG
    metadataID: AERSURFAREASTRATLIQUID
    registryID: AERSURFAREASTRATLIQUID
  
 AerSurfAreaHyg_?HYG?
    state:      DIAG
    metadataID: AERSURFAREAHYG
    registryID: AERSURFAREAHYG
    isWildcard:  T
    wildcard:   HYG
  
 AerSurfAreaDust
    state:      DIAG
    metadataID: AERSURFAREADUST
    registryID: AERSURFAREADUST
  
 AerAqueousVolume
    state:      DIAG
    metadataID: AERAQUEOUSVOLUME
    registryID: AERAQUEOUSVOLUME
  
 AerNumDensityStratParticulate
    state:      DIAG
    metadataID: AERNUMDENSITYSTRATPARTICULATE
    registryID: AERNUMDENSITYSTRATPARTICULATE
  
 AerNumDensityStratLiquid
    state:      DIAG
    metadataID: AERNUMDENSITYSTRATLIQUID
    registryID: AERNUMDENSITYSTRATLIQUID
  
 AerHygroscopicGrowth_?HYG?
    state:      DIAG
    metadataID: AERHYGROSCOPICGROWTH
    registryID: AERHYGROSCOPICGROWTH
    isWildcard:  T
    wildcard:   HYG
  
 AODPolarStratCloudWL1
    state:      DIAG
    metadataID: AODPOLARSTRATCLOUD550nm
    registryID: AODPOLARSTRATCLOUD550nm
  
 AODStratLiquidAerWL1
    state:      DIAG
    metadataID: AODSTRATLIQUIDAER550nm
    registryID: AODSTRATLIQUIDAER550nm
  
 AODSOAfromAqIsopreneWL1
    state:      DIAG
    metadataID: AODSOAFROMAQISOPRENE550nm
    registryID: AODSOAFROMAQISOPRENE550nm
  
 AODHygWL1_?HYG?
    state:      DIAG
    metadataID: AODHYG550nm
    registryID: AODHYG550nm
    isWildcard:  T
    wildcard:   HYG
  
 AODDustWL1_?DUSTBIN?
    state:      DIAG
    metadataID: AODDUST550nm
    registryID: AODDUST550nm
    isWildcard:  T
    wildcard:   DUSTBIN
  
 AODDust
    state:      DIAG
    metadataID: AODDUST
    registryID: AODDUST
  
 TotalOC
    state:      DIAG
    metadataID: TOTALOC
    registryID: TOTALOC
  
 TotalOA
    state:      DIAG
    metadataID: TOTALOA
    registryID: TOTALOA
  
 PM25
    state:      DIAG
    metadataID: PM25
    registryID: PM25
  
 AerMassSOAMG
    state:      DIAG
    metadataID: AERMASSSOAMG
    registryID: AERMASSSOAMG
  
 AerMassSOAGX
    state:      DIAG
    metadataID: AERMASSSOAGX
    registryID: AERMASSSOAGX
  
 AerMassSO4
    state:      DIAG
    metadataID: AERMASSSO4
    registryID: AERMASSSO4
  
 AerMassSAL
    state:      DIAG
    metadataID: AERMASSSAL
    registryID: AERMASSSAL
  
 AerMassPOA
    state:      DIAG
    metadataID: AERMASSPOA
    registryID: AERMASSPOA
  
 AerMassNIT
    state:      DIAG
    metadataID: AERMASSNIT
    registryID: AERMASSNIT
  
 AerMassNH4
    state:      DIAG
    metadataID: AERMASSNH4
    registryID: AERMASSNH4
  
 AerMassBC
    state:      DIAG
    metadataID: AERMASSBC
    registryID: AERMASSBC
  
 BudgetWetDepPBL_?WET?
    state:      DIAG
    metadataID: BUDGETWETDEPPBL
    registryID: BUDGETWETDEPPBL
    isWildcard:  T
    wildcard:   WET
  
 BudgetWetDepTrop_?WET?
    state:      DIAG
    metadataID: BUDGETWETDEPTROP
    registryID: BUDGETWETDEPTROP
    isWildcard:  T
    wildcard:   WET
  
 BudgetWetDepFull_?WET?
    state:      DIAG
    metadataID: BUDGETWETDEPFULL
    registryID: BUDGETWETDEPFULL
    isWildcard:  T
    wildcard:   WET
  
 BudgetConvectionPBL_?ADV?
    state:      DIAG
    metadataID: BUDGETCONVECTIONPBL
    registryID: BUDGETCONVECTIONPBL
    isWildcard:  T
    wildcard:   ADV
  
 BudgetConvectionTrop_?ADV?
    state:      DIAG
    metadataID: BUDGETCONVECTIONTROP
    registryID: BUDGETCONVECTIONTROP
    isWildcard:  T
    wildcard:   ADV
  
 BudgetConvectionFull_?ADV?
    state:      DIAG
    metadataID: BUDGETCONVECTIONFULL
    registryID: BUDGETCONVECTIONFULL
    isWildcard:  T
    wildcard:   ADV
  
 BudgetMixingPBL_?ADV?
    state:      DIAG
    metadataID: BUDGETMIXINGPBL
    registryID: BUDGETMIXINGPBL
    isWildcard:  T
    wildcard:   ADV
  
 BudgetMixingTrop_?ADV?
    state:      DIAG
    metadataID: BUDGETMIXINGTROP
    registryID: BUDGETMIXINGTROP
    isWildcard:  T
    wildcard:   ADV
  
 BudgetMixingFull_?ADV?
    state:      DIAG
    metadataID: BUDGETMIXINGFULL
    registryID: BUDGETMIXINGFULL
    isWildcard:  T
    wildcard:   ADV
  
 BudgetChemistryPBL_?ADV?
    state:      DIAG
    metadataID: BUDGETCHEMISTRYPBL
    registryID: BUDGETCHEMISTRYPBL
    isWildcard:  T
    wildcard:   ADV
  
 BudgetChemistryTrop_?ADV?
    state:      DIAG
    metadataID: BUDGETCHEMISTRYTROP
    registryID: BUDGETCHEMISTRYTROP
    isWildcard:  T
    wildcard:   ADV
  
 BudgetChemistryFull_?ADV?
    state:      DIAG
    metadataID: BUDGETCHEMISTRYFULL
    registryID: BUDGETCHEMISTRYFULL
    isWildcard:  T
    wildcard:   ADV
  
 BudgetEmisDryDepPBL_?ADV?
    state:      DIAG
    metadataID: BUDGETEMISDRYDEPPBL
    registryID: BUDGETEMISDRYDEPPBL
    isWildcard:  T
    wildcard:   ADV
  
 BudgetEmisDryDepTrop_?ADV?
    state:      DIAG
    metadataID: BUDGETEMISDRYDEPTROP
    registryID: BUDGETEMISDRYDEPTROP
    isWildcard:  T
    wildcard:   ADV
  
 BudgetEmisDryDepFull_?ADV?
    state:      DIAG
    metadataID: BUDGETEMISDRYDEPFULL
    registryID: BUDGETEMISDRYDEPFULL
    isWildcard:  T
    wildcard:   ADV
  
 SpeciesConc_?ADV?
    state:      DIAG
    metadataID: SPECIESCONC
    registryID: SPECIESCONC
    isWildcard:  T
    wildcard:   ADV
  
  
 %%%%%%%%% GIGC IN-PET GRID SWITCHING HACKS %%%%%%%%%
     (Not very) Proudly brought to you by hplin      
 Some debug information:
 ID:           1
 IM, JM, LM:          20          14          49  will be set as PAR
 Allocs: CMN T GC F
 RC at entry-point:           0
 %%%%%%%%%%%%%%%%%%%%%%%%%%%%%%%%%%%%%%%%%%%%%%%%%%%%
 No need to switch HcoState for ID           1
 Exit RC:            0
 %%%%%%%%%    FINISHED GIGC_Switch_Dims    %%%%%%%%%
 GIGC_Chunk_Init: Received new grid IM, JM, LM =          20          14
          49
     ### GIGC_INIT_SIMULATION: after Input_Opt% setups

SET_TIMESTEPS: setting GEOS-Chem timesteps!
-------------------------------------------
Chemistry  Timestep [sec] :    300
Convection Timestep [sec] :    300
Dynamics   Timestep [sec] :    300
Emission   Timestep [sec] :    300
Unit Conv  Timestep [sec] :    300
Diagnostic Timestep [sec] :      0
Radiation  Timestep [sec] :  10800

Registered variables contained within the State_Met object:
===============================================================================
 MET_LOCALSOLARTIME             | Local solar time     | xy    | hours
 MET_XCHLRNATIVE                | Average CHLR per Ols | xyz C | mg m-3
 MET_XLAINATIVE                 | Average LAI per Olso | xyz C | m2 m-2
 MET_LANDTYPEFRAC               | Olson fraction per l | xyz C | 1
 MET_MODISCHLR                  | Daily chlorophyll-a  | xy    | mg m-3
 MET_XCHLR2                     | MODIS chlorophyll-a  | xyz C | mg m-3
 MET_XLAI2                      | MODIS LAI for each O | xyz C | m2 m-2
 MET_XCHLR                      | MODIS chlorophyll-a  | xyz C | mg m-3
 MET_MODISLAI                   | Daily LAI computed f | xy    | m2 m-2
 MET_XLAI                       | MODIS LAI for each O | xyz C | m2 m-2
 MET_IUSE                       | Fraction (per mil) o | xyz C | o/oo
 MET_ILAND                      | Olson land type indi | xyz C | 1
 MET_IREG                       | Number of Olson land | xy    | 1
 MET_AGEOFAIR                   | Age of air           | xyz C | s
 MET_TMPU2                      | Instantaneous temper | xyz C | K
 MET_TMPU1                      | Instantaneous temper | xyz C | K
 MET_SPHU2                      | Instantaneous specif | xyz C | g kg-1
 MET_SPHU1                      | Instantaneous specif | xyz C | g kg-1
 MET_REEVAPLS                   | Evaporation of large | xyz C | kg
 MET_REEVAPCN                   | Evaporation of conve | xyz C | kg kg-1 s-1
 MET_PFLLSAN                    | Downward flux of liq | xyz E | kg m-2 s-1
 MET_PFLCU                      | Downward flux of liq | xyz E | kg m-2 s-1
 MET_PFILSAN                    | Downwared flux of ic | xyz E | kg m-2 s-1
 MET_PFICU                      | Downward flux of ice | xyz E | kg m-2 s-1
 MET_UPDVVEL                    | Updraft vertical vel | xyz C | hPa s-1
 MET_V                          | North-south componen | xyz C | m s-1
 MET_U                          | East-west component  | xyz C | m s-1
 MET_TAUCLW                     | Optical depth of H2O | xyz C | 1
 MET_TAUCLI                     | Optical depth of ice | xyz C | 1
 MET_TV                         | Virtual temperature  | xyz C | K
 MET_THETA                      | Potential temperatur | xyz C | K
 MET_T                          | Temperature          | xyz C | K
 MET_SPHU                       | Specific humidity (w | xyz C | g kg-1
 MET_RH                         | Relative humidity    | xyz C | %
 MET_QL                         | Water mixing ratio ( | xyz C | kg kg-1
 MET_QI                         | Ice mixing ratio (w/ | xyz C | kg kg-1
 MET_PMIDDRY                    | Pressure (w/r/t dry  | xyz C | hPa
 MET_PMID                       | Pressure (w/r/t mois | xyz C | hPa
 MET_PEDGEDRY                   | Pressure (w/r/t dry  | xyz E | hPa
 MET_PEDGE                      | Pressure (w/r/t mois | xyz E | hPa
 MET_OPTD                       | Visible optical dept | xyz C | 1
 MET_OMEGA                      | Updraft velocity     | xyz C | Pa s-1
 MET_DTRAIN                     | Detrainment flux     | xyz C | kg m-2 s-1
 MET_DQRLSAN                    | Production rate of l | xyz C | kg kg-1 s-1
 MET_DQRCU                      | Production rate of c | xyz C | kg kg-1 s-1
 MET_DPDRYPREV                  | Previous State_Met%D | xyz C | hPa
 MET_DELPDRY                    | Delta-pressure acros | xyz C | hPa
 MET_DELP                       | Delta-pressure acros | xyz C | hPa
 MET_CMFMC                      | Cloud mass flux      | xyz E | kg m-2 s-1
 MET_CLDF                       | 3-D cloud fraction   | xyz C | 1
 MET_BXHEIGHT                   | Grid box height (w/r | xyz C | m
 MET_AVGW                       | Water vapor mixing r | xyz C | vol vol-1
 MET_AREAM2                     | Surface area of grid | xyz C | m2
 MET_AIRVOL                     | Volume of dry air in | xyz C | m3
 MET_AIRNUMDEN                  | Dry air density      | xyz C | m-3
 MET_MAIRDEN                    | Moist air density    | xyz C | kg m-3
 MET_AIRDEN                     | Dry air density      | xyz C | kg m-3
 MET_AD                         | Dry air mass         | xyz C | kg
 MET_SEAICE90                   | Sea ice coverage 90- | xy    | 1
 MET_SEAICE80                   | Sea ice coverage 80- | xy    | 1
 MET_SEAICE70                   | Sea ice coverage 70- | xy    | 1
 MET_SEAICE60                   | Sea ice coverage 60- | xy    | 1
 MET_SEAICE50                   | Sea ice coverage 50- | xy    | 1
 MET_SEAICE40                   | Sea ice coverage 40- | xy    | 1
 MET_SEAICE30                   | Sea ice coverage 30- | xy    | 1
 MET_SEAICE20                   | Sea ice coverage 20- | xy    | 1
 MET_SEAICE10                   | Sea ice coverage 10- | xy    | 1
 MET_SEAICE00                   | Sea ice coverage 00- | xy    | 1
 MET_PRECLSC                    | Large-scale precipit | xy    | kg m-2 s-1
 MET_PRECANV                    | Anvil precipitation  | xy    | kg m-2 s-1
 MET_FRSNO                      | Fraction of snow on  | xy    | 1
 MET_FRSEAICE                   | Fraction of sea ice  | xy    | 1
 MET_CNVFRC                     | Convective fraction  | xy    | 1
 MET_Z0                         | Surface roughness he | xy    | m
 MET_V10M                       | North-south wind at  | xy    | m s-1
 MET_UVALBEDO                   | Ultraviolet surface  | xy    | 1
 MET_USTAR                      | Friction velocity    | xy    | m s-1
 MET_U10M                       | East-west wind at 10 | xy    | m s-1
 MET_TSKIN                      | Surface skin tempera | xy    | K
 MET_TS                         | Surface temperature  | xy    | K
 MET_TROPP                      | Tropopause pressure  | xy    | hPa
 MET_TROPHT                     | Tropopause height    | xy    | km
 MET_TROPLEV                    | GEOS-Chem level wher | xy    | 1
 MET_TO3                        | Total overhead ozone | xy    | dobsons
 MET_SWGDN                      | Incident shortwave r | xy    | W m-2
 MET_SUNCOSMID                  | Cosine of solar zeni | xy    | 1
 MET_SUNCOS                     | Cosine of solar zeni | xy    | 1
 MET_SNOMAS                     | Snow mass            | xy    | kg m-2
 MET_SNODP                      | Snow depth           | xy    | m
 MET_SLP                        | Sea level pressure   | xy    | hPa
 MET_PSC2DRY                    | Dry interpolated sur | xy    | hPa
 MET_PS2DRY                     | Dry surface pressure | xy    | hPa
 MET_PS1DRY                     | Dry surface pressure | xy    | hPa
 MET_PSC2WET                    | Wet interpolated sur | xy    | hPa
 MET_PS2WET                     | Wet surface pressure | xy    | hPa
 MET_PS1WET                     | Wet surface pressure | xy    | hPa
 MET_PRECTOT                    | Total precipitation  | xy    | kg m-2 s-1
 MET_PRECCON                    | Convective precipita | xy    | kg m-2 s-1
 MET_PHIS                       | Surface geopotential | xy    | m2 s-1
 MET_PBLTOPL                    | Model layer of the p | xy    | layer
 MET_PBLH                       | Planetary boundary l | xy    | m
 MET_PARDF                      | Diffuse photosynthet | xy    | W m-2
 MET_PARDR                      | Direct photosyntheti | xy    | W m-2
 MET_LWI                        | Land-water-ice indic | xy    | 1
 MET_LAI                        | Leaf area index from | xy    | m2 m-2
 MET_HFLUX                      | Sensible heat flux   | xy    | W m-2
 MET_GWETTOP                    | Top soil moisture    | xy    | 1
 MET_GWETROOT                   | Root soil wetness    | xy    | 1
 MET_FROCEAN                    | Fraction of ocean    | xy    | 1
 MET_FRLANDIC                   | Fraction of land ice | xy    | 1
 MET_FRLAND                     | Fraction of land     | xy    | 1
 MET_FRLAKE                     | Fraction of lake     | xy    | 1
 MET_FRCLND                     | Olson land fraction  | xy    | 1
 MET_EFLUX                      | Latent heat flux     | xy    | W m-2
 MET_CLDTOPS                    | Maximum cloud top he | xy    | level
 MET_CLDFRC                     | Column cloud fractio | xy    | 1
 MET_CHEMGRIDLEV                | Highest level of the | xy    | 1
 MET_ALBD                       | Visible surface albe | xy    | 1

ADVECTED SPECIES MENU
------------------------------------------------
  #  Species Name
  1  NO                             
  2  O3                             
  3  PAN                            
  4  CO                             
  5  ALK4                           
  6  ISOP                           
  7  HNO3                           
  8  H2O2                           
  9  ACET                           
 10  MEK                            
 11  ALD2                           
 12  RCHO                           
 13  MVK                            
 14  MACR                           
 15  NPMN                           
 16  PPN                            
 17  R4N2                           
 18  PRPE                           
 19  C3H8                           
 20  CH2O                           
 21  C2H6                           
 22  N2O5                           
 23  HNO4                           
 24  MP                             
 25  DMS                            
 26  SO2                            
 27  SO4                            
 28  SO4s                           
 29  MSA                            
 30  NH3                            
 31  NH4                            
 32  NIT                            
 33  NITs                           
 34  BCPI                           
 35  OCPI                           
 36  BCPO                           
 37  OCPO                           
 38  DST1                           
 39  DST2                           
 40  DST3                           
 41  DST4                           
 42  SALA                           
 43  SALC                           
 44  Br2                            
 45  Br                             
 46  BrO                            
 47  HOBr                           
 48  HBr                            
 49  BrNO2                          
 50  BrNO3                          
 51  CHBr3                          
 52  CH2Br2                         
 53  CH3Br                          
 54  MPN                            
 55  ISOPND                         
 56  ISOPNB                         
 57  MOBA                           
 58  PROPNN                         
 59  HAC                            
 60  GLYC                           
 61  MVKN                           
 62  MACRN                          
 63  MAP                            
 64  NO2                            
 65  NO3                            
 66  HNO2                           
 67  BENZ                           
 68  TOLU                           
 69  XYLE                           
 70  MTPA                           
 71  LIMO                           
 72  MTPO                           
 73  SOAP                           
 74  SOAS                           
 75  EOH                            
 76  MGLY                           
 77  GLYX                           
 78  ACTA                           
 79  HPALD                          
 80  DHDN                           
 81  ETHLN                          
 82  HCOOH                          
 83  IEPOXA                         
 84  IEPOXB                         
 85  IEPOXD                         
 86  ISN1                           
 87  RIPA                           
 88  RIPB                           
 89  RIPD                           
 90  IMAE                           
 91  SOAIE                          
 92  SOAME                          
 93  SOAGX                          
 94  SOAMG                          
 95  LVOC                           
 96  LVOCOA                         
 97  ISN1OG                         
 98  ISN1OA                         
 99  MONITS                         
100  MONITU                         
101  HONIT                          
102  IONITA                         
103  MONITA                         
104  INDIOL                         
105  IPMN                           
106  HC187                          
107  N2O                            
108  OCS                            
109  CH4                            
110  BrCl                           
111  HCl                            
112  CCl4                           
113  CH3Cl                          
114  CH3CCl3                        
115  CFC113                         
116  CFC114                         
117  CFC115                         
118  HCFC123                        
119  HCFC141b                       
120  HCFC142b                       
121  CFC11                          
122  CFC12                          
123  HCFC22                         
124  H1211                          
125  H1301                          
126  H2402                          
127  Cl                             
128  ClO                            
129  HOCl                           
130  ClNO3                          
131  ClNO2                          
132  ClOO                           
133  OClO                           
134  Cl2                            
135  Cl2O2                          
136  H2O                            
137  BrSALA                         
138  BrSALC                         
139  CHCl3                          
140  CH2Cl2                         
141  CH3I                           
142  CH2I2                          
143  CH2ICl                         
144  CH2IBr                         
145  HOI                            
146  I2                             
147  IBr                            
148  ICl                            
149  I                              
150  IO                             
151  HI                             
152  OIO                            
153  INO                            
154  IONO                           
155  IONO2                          
156  I2O2                           
157  I2O3                           
158  I2O4                           
159  ISALA                          
160  ISALC                          
161  AERI                           
162  pFe                            

Registered variables contained within the State_Chm object:
===============================================================================
 CHEM_DRYDEPSAV                 | Dry deposition frequ | xyz C | s-1
 CHEM_KHETISLAHOBRHBR           | Sticking coeeficient | xyz C | 1
 CHEM_KHETISLAHOBRHCL           | Sticking coeeficient | xyz C | 1
 CHEM_KHETISLAHOCLHBR           | Sticking coeeficient | xyz C | 1
 CHEM_KHETISLAHOCLHCL           | Sticking coeeficient | xyz C | 1
 CHEM_KHETISLABRNO3HCL          | Sticking coeeficient | xyz C | 1
 CHEM_KHETISLABRNO3H2O          | Sticking coeeficient | xyz C | 1
 CHEM_KHETISLACLNO3HBR          | Sticking coeeficient | xyz C | 1
 CHEM_KHETISLACLNO3HCL          | Sticking coeeficient | xyz C | 1
 CHEM_KHETISLACLNO3H2O          | Sticking coeeficient | xyz C | 1
 CHEM_KHETISLAN2O5HCL           | Sticking coeeficient | xyz C | 1
 CHEM_KHETISLAN2O5H2O           | Sticking coeeficient | xyz C | 1
 CHEM_STATEPSC                  | Polar stratospheric  | xyz C | count
 CHEM_KPPHVALUE                 | H-value for Rosenbro | xyz C | 1
 CHEM_SO2AFTERCHEM              | SO2 after sulfate ch | xyz C | v/v
 CHEM_H2O2AFTERCHEM             | H2O2 after sulfate c | xyz C | v/v
 CHEM_WETDEPNITROGEN            | Wet deposited nitrog | xy    | molec/cm2/s
 CHEM_DRYDEPNITROGEN            | Dry deposited nitrog | xy    | molec/cm2/s
 CHEM_FUPDATEHOBR               | Correction factor fo | xyz C | 1
 CHEM_SO3AQ                     | Cloud sulfite concen | xyz C | mol/L
 CHEM_HSO3AQ                    | Cloud bisulfite conc | xyz C | mol/L
 CHEM_SSALKCOARSE               | Sea salt alkalinity, | xyz C | 1
 CHEM_SSALKACCUM                | Sea salt alkalinity, | xyz C | 1
 CHEM_PHCLOUD                   | Cloud pH             | xyz C | 1
 CHEM_BISULSAV                  | ISORROPIA Bisulfate  | xyz C | mol/L
 CHEM_ACIDPURSAV                | ISORROPIA ACIDPUR    | xyz C | mol/L
 CHEM_NARATSAV                  | ISORROPIA Na+ concen | xyz C | mol/L
 CHEM_SULRATSAV                 | ISORROPIA sulfate co | xyz C | mol/L
 CHEM_WATERSAV                  | ISORROPIA aerosol wa | xyz C | ug m-3
 CHEM_HPLUSSAV                  | ISORROPIA H+ concent | xyz C | mol/L
 CHEM_PHSAV                     | ISORROPIA aerosol pH | xyz C | 1
 CHEM_WETAERORADIICEI           | Wet aerosol radius f | xyz C | cm
 CHEM_WETAERORADIBGSULF         | Wet aerosol radius f | xyz C | cm
 CHEM_WETAERORADISSC            | Wet aerosol radius f | xyz C | cm
 CHEM_WETAERORADISSA            | Wet aerosol radius f | xyz C | cm
 CHEM_WETAERORADIOC             | Wet aerosol radius f | xyz C | cm
 CHEM_WETAERORADIBC             | Wet aerosol radius f | xyz C | cm
 CHEM_WETAERORADISULF           | Wet aerosol radius f | xyz C | cm
 CHEM_WETAERORADIMDUST7         | Wet aerosol radius f | xyz C | cm
 CHEM_WETAERORADIMDUST6         | Wet aerosol radius f | xyz C | cm
 CHEM_WETAERORADIMDUST5         | Wet aerosol radius f | xyz C | cm
 CHEM_WETAERORADIMDUST4         | Wet aerosol radius f | xyz C | cm
 CHEM_WETAERORADIMDUST3         | Wet aerosol radius f | xyz C | cm
 CHEM_WETAERORADIMDUST2         | Wet aerosol radius f | xyz C | cm
 CHEM_WETAERORADIMDUST1         | Wet aerosol radius f | xyz C | cm
 CHEM_WETAEROAREAICEI           | Wet aerosol area for | xyz C | cm2/cm3
 CHEM_WETAEROAREABGSULF         | Wet aerosol area for | xyz C | cm2/cm3
 CHEM_WETAEROAREASSC            | Wet aerosol area for | xyz C | cm2/cm3
 CHEM_WETAEROAREASSA            | Wet aerosol area for | xyz C | cm2/cm3
 CHEM_WETAEROAREAOC             | Wet aerosol area for | xyz C | cm2/cm3
 CHEM_WETAEROAREABC             | Wet aerosol area for | xyz C | cm2/cm3
 CHEM_WETAEROAREASULF           | Wet aerosol area for | xyz C | cm2/cm3
 CHEM_WETAEROAREAMDUST7         | Wet aerosol area for | xyz C | cm2/cm3
 CHEM_WETAEROAREAMDUST6         | Wet aerosol area for | xyz C | cm2/cm3
 CHEM_WETAEROAREAMDUST5         | Wet aerosol area for | xyz C | cm2/cm3
 CHEM_WETAEROAREAMDUST4         | Wet aerosol area for | xyz C | cm2/cm3
 CHEM_WETAEROAREAMDUST3         | Wet aerosol area for | xyz C | cm2/cm3
 CHEM_WETAEROAREAMDUST2         | Wet aerosol area for | xyz C | cm2/cm3
 CHEM_WETAEROAREAMDUST1         | Wet aerosol area for | xyz C | cm2/cm3
 CHEM_AERORADIICEI              | Dry aerosol radius f | xyz C | cm
 CHEM_AERORADIBGSULF            | Dry aerosol radius f | xyz C | cm
 CHEM_AERORADISSC               | Dry aerosol radius f | xyz C | cm
 CHEM_AERORADISSA               | Dry aerosol radius f | xyz C | cm
 CHEM_AERORADIOC                | Dry aerosol radius f | xyz C | cm
 CHEM_AERORADIBC                | Dry aerosol radius f | xyz C | cm
 CHEM_AERORADISULF              | Dry aerosol radius f | xyz C | cm
 CHEM_AERORADIMDUST7            | Dry aerosol radius f | xyz C | cm
 CHEM_AERORADIMDUST6            | Dry aerosol radius f | xyz C | cm
 CHEM_AERORADIMDUST5            | Dry aerosol radius f | xyz C | cm
 CHEM_AERORADIMDUST4            | Dry aerosol radius f | xyz C | cm
 CHEM_AERORADIMDUST3            | Dry aerosol radius f | xyz C | cm
 CHEM_AERORADIMDUST2            | Dry aerosol radius f | xyz C | cm
 CHEM_AERORADIMDUST1            | Dry aerosol radius f | xyz C | cm
 CHEM_AEROAREAICEI              | Dry aerosol area for | xyz C | cm2/cm3
 CHEM_AEROAREABGSULF            | Dry aerosol area for | xyz C | cm2/cm3
 CHEM_AEROAREASSC               | Dry aerosol area for | xyz C | cm2/cm3
 CHEM_AEROAREASSA               | Dry aerosol area for | xyz C | cm2/cm3
 CHEM_AEROAREAOC                | Dry aerosol area for | xyz C | cm2/cm3
 CHEM_AEROAREABC                | Dry aerosol area for | xyz C | cm2/cm3
 CHEM_AEROAREASULF              | Dry aerosol area for | xyz C | cm2/cm3
 CHEM_AEROAREAMDUST7            | Dry aerosol area for | xyz C | cm2/cm3
 CHEM_AEROAREAMDUST6            | Dry aerosol area for | xyz C | cm2/cm3
 CHEM_AEROAREAMDUST5            | Dry aerosol area for | xyz C | cm2/cm3
 CHEM_AEROAREAMDUST4            | Dry aerosol area for | xyz C | cm2/cm3
 CHEM_AEROAREAMDUST3            | Dry aerosol area for | xyz C | cm2/cm3
 CHEM_AEROAREAMDUST2            | Dry aerosol area for | xyz C | cm2/cm3
 CHEM_AEROAREAMDUST1            | Dry aerosol area for | xyz C | cm2/cm3
 CHEM_SPECIES_RCOOH             | Concentration for sp | xyz C | varies
 CHEM_SPECIES_O2                | Concentration for sp | xyz C | varies
 CHEM_SPECIES_N2                | Concentration for sp | xyz C | varies
 CHEM_SPECIES_MOH               | Concentration for sp | xyz C | varies
 CHEM_SPECIES_H2                | Concentration for sp | xyz C | varies
 CHEM_SPECIES_OH                | Concentration for sp | xyz C | varies
 CHEM_SPECIES_HO2               | Concentration for sp | xyz C | varies
 CHEM_SPECIES_O                 | Concentration for sp | xyz C | varies
 CHEM_SPECIES_O1D               | Concentration for sp | xyz C | varies
 CHEM_SPECIES_MO2               | Concentration for sp | xyz C | varies
 CHEM_SPECIES_MCO3              | Concentration for sp | xyz C | varies
 CHEM_SPECIES_MRO2              | Concentration for sp | xyz C | varies
 CHEM_SPECIES_R4O2              | Concentration for sp | xyz C | varies
 CHEM_SPECIES_INO2              | Concentration for sp | xyz C | varies
 CHEM_SPECIES_ETO2              | Concentration for sp | xyz C | varies
 CHEM_SPECIES_RIO2              | Concentration for sp | xyz C | varies
 CHEM_SPECIES_HC5               | Concentration for sp | xyz C | varies
 CHEM_SPECIES_CH2OO             | Concentration for sp | xyz C | varies
 CHEM_SPECIES_VRO2              | Concentration for sp | xyz C | varies
 CHEM_SPECIES_NMAO3             | Concentration for sp | xyz C | varies
 CHEM_SPECIES_HC5OO             | Concentration for sp | xyz C | varies
 CHEM_SPECIES_PIO2              | Concentration for sp | xyz C | varies
 CHEM_SPECIES_ISOPNBO2          | Concentration for sp | xyz C | varies
 CHEM_SPECIES_KO2               | Concentration for sp | xyz C | varies
 CHEM_SPECIES_OLNN              | Concentration for sp | xyz C | varies
 CHEM_SPECIES_OLND              | Concentration for sp | xyz C | varies
 CHEM_SPECIES_LIMO2             | Concentration for sp | xyz C | varies
 CHEM_SPECIES_RCO3              | Concentration for sp | xyz C | varies
 CHEM_SPECIES_ATO2              | Concentration for sp | xyz C | varies
 CHEM_SPECIES_MAOPO2            | Concentration for sp | xyz C | varies
 CHEM_SPECIES_R4N1              | Concentration for sp | xyz C | varies
 CHEM_SPECIES_MACROO            | Concentration for sp | xyz C | varies
 CHEM_SPECIES_B3O2              | Concentration for sp | xyz C | varies
 CHEM_SPECIES_ISOPNDO2          | Concentration for sp | xyz C | varies
 CHEM_SPECIES_PO2               | Concentration for sp | xyz C | varies
 CHEM_SPECIES_ISNOOA            | Concentration for sp | xyz C | varies
 CHEM_SPECIES_MAN2              | Concentration for sp | xyz C | varies
 CHEM_SPECIES_A3O2              | Concentration for sp | xyz C | varies
 CHEM_SPECIES_MGLOO             | Concentration for sp | xyz C | varies
 CHEM_SPECIES_PRN1              | Concentration for sp | xyz C | varies
 CHEM_SPECIES_MGLYOO            | Concentration for sp | xyz C | varies
 CHEM_SPECIES_IEPOXOO           | Concentration for sp | xyz C | varies
 CHEM_SPECIES_CH3CHOO           | Concentration for sp | xyz C | varies
 CHEM_SPECIES_GAOO              | Concentration for sp | xyz C | varies
 CHEM_SPECIES_ISNOOB            | Concentration for sp | xyz C | varies
 CHEM_SPECIES_MVKOO             | Concentration for sp | xyz C | varies
 CHEM_SPECIES_ISNOHOO           | Concentration for sp | xyz C | varies
 CHEM_SPECIES_ROH               | Concentration for sp | xyz C | varies
 CHEM_SPECIES_MACRNO2           | Concentration for sp | xyz C | varies
 CHEM_SPECIES_H                 | Concentration for sp | xyz C | varies
 CHEM_SPECIES_DIBOO             | Concentration for sp | xyz C | varies
 CHEM_SPECIES_MOBAOO            | Concentration for sp | xyz C | varies
 CHEM_SPECIES_INPN              | Concentration for sp | xyz C | varies
 CHEM_SPECIES_MRP               | Concentration for sp | xyz C | varies
 CHEM_SPECIES_MAOP              | Concentration for sp | xyz C | varies
 CHEM_SPECIES_ISNP              | Concentration for sp | xyz C | varies
 CHEM_SPECIES_DHMOB             | Concentration for sp | xyz C | varies
 CHEM_SPECIES_ATOOH             | Concentration for sp | xyz C | varies
 CHEM_SPECIES_VRP               | Concentration for sp | xyz C | varies
 CHEM_SPECIES_HPC52O2           | Concentration for sp | xyz C | varies
 CHEM_SPECIES_IAP               | Concentration for sp | xyz C | varies
 CHEM_SPECIES_DHPCARP           | Concentration for sp | xyz C | varies
 CHEM_SPECIES_R4P               | Concentration for sp | xyz C | varies
 CHEM_SPECIES_PIP               | Concentration for sp | xyz C | varies
 CHEM_SPECIES_PRPN              | Concentration for sp | xyz C | varies
 CHEM_SPECIES_PP                | Concentration for sp | xyz C | varies
 CHEM_SPECIES_RP                | Concentration for sp | xyz C | varies
 CHEM_SPECIES_RB3P              | Concentration for sp | xyz C | varies
 CHEM_SPECIES_RA3P              | Concentration for sp | xyz C | varies
 CHEM_SPECIES_ETP               | Concentration for sp | xyz C | varies
 CHEM_SPECIES_IMAO3             | Concentration for sp | xyz C | varies
 CHEM_SPECIES_XRO2              | Concentration for sp | xyz C | varies
 CHEM_SPECIES_N                 | Concentration for sp | xyz C | varies
 CHEM_SPECIES_BRO2              | Concentration for sp | xyz C | varies
 CHEM_SPECIES_TRO2              | Concentration for sp | xyz C | varies
 CHEM_SPECIES_PMNN              | Concentration for sp | xyz C | varies
 CHEM_SPECIES_DHDC              | Concentration for sp | xyz C | varies
 CHEM_SPECIES_PH2O2             | Concentration for sp | xyz C | varies
 CHEM_SPECIES_LCH4              | Concentration for sp | xyz C | varies
 CHEM_SPECIES_PSO4              | Concentration for sp | xyz C | varies
 CHEM_SPECIES_LCO               | Concentration for sp | xyz C | varies
 CHEM_SPECIES_PCO               | Concentration for sp | xyz C | varies
 CHEM_SPECIES_LOX               | Concentration for sp | xyz C | varies
 CHEM_SPECIES_POX               | Concentration for sp | xyz C | varies
 CHEM_SPECIES_SO4H2             | Concentration for sp | xyz C | varies
 CHEM_SPECIES_SO4H1             | Concentration for sp | xyz C | varies
 CHEM_SPECIES_PYAC              | Concentration for sp | xyz C | varies
 CHEM_SPECIES_LXRO2N            | Concentration for sp | xyz C | varies
 CHEM_SPECIES_LXRO2H            | Concentration for sp | xyz C | varies
 CHEM_SPECIES_LTRO2N            | Concentration for sp | xyz C | varies
 CHEM_SPECIES_LTRO2H            | Concentration for sp | xyz C | varies
 CHEM_SPECIES_LISOPNO3          | Concentration for sp | xyz C | varies
 CHEM_SPECIES_LISOPOH           | Concentration for sp | xyz C | varies
 CHEM_SPECIES_LBRO2N            | Concentration for sp | xyz C | varies
 CHEM_SPECIES_LBRO2H            | Concentration for sp | xyz C | varies
 CHEM_SPECIES_CO2               | Concentration for sp | xyz C | varies
 CHEM_SPECIES_PFE               | Concentration for sp | xyz C | varies
 CHEM_SPECIES_AERI              | Concentration for sp | xyz C | varies
 CHEM_SPECIES_ISALC             | Concentration for sp | xyz C | varies
 CHEM_SPECIES_ISALA             | Concentration for sp | xyz C | varies
 CHEM_SPECIES_I2O4              | Concentration for sp | xyz C | varies
 CHEM_SPECIES_I2O3              | Concentration for sp | xyz C | varies
 CHEM_SPECIES_I2O2              | Concentration for sp | xyz C | varies
 CHEM_SPECIES_IONO2             | Concentration for sp | xyz C | varies
 CHEM_SPECIES_IONO              | Concentration for sp | xyz C | varies
 CHEM_SPECIES_INO               | Concentration for sp | xyz C | varies
 CHEM_SPECIES_OIO               | Concentration for sp | xyz C | varies
 CHEM_SPECIES_HI                | Concentration for sp | xyz C | varies
 CHEM_SPECIES_IO                | Concentration for sp | xyz C | varies
 CHEM_SPECIES_I                 | Concentration for sp | xyz C | varies
 CHEM_SPECIES_ICL               | Concentration for sp | xyz C | varies
 CHEM_SPECIES_IBR               | Concentration for sp | xyz C | varies
 CHEM_SPECIES_I2                | Concentration for sp | xyz C | varies
 CHEM_SPECIES_HOI               | Concentration for sp | xyz C | varies
 CHEM_SPECIES_CH2IBR            | Concentration for sp | xyz C | varies
 CHEM_SPECIES_CH2ICL            | Concentration for sp | xyz C | varies
 CHEM_SPECIES_CH2I2             | Concentration for sp | xyz C | varies
 CHEM_SPECIES_CH3I              | Concentration for sp | xyz C | varies
 CHEM_SPECIES_CH2CL2            | Concentration for sp | xyz C | varies
 CHEM_SPECIES_CHCL3             | Concentration for sp | xyz C | varies
 CHEM_SPECIES_BRSALC            | Concentration for sp | xyz C | varies
 CHEM_SPECIES_BRSALA            | Concentration for sp | xyz C | varies
 CHEM_SPECIES_H2O               | Concentration for sp | xyz C | varies
 CHEM_SPECIES_CL2O2             | Concentration for sp | xyz C | varies
 CHEM_SPECIES_CL2               | Concentration for sp | xyz C | varies
 CHEM_SPECIES_OCLO              | Concentration for sp | xyz C | varies
 CHEM_SPECIES_CLOO              | Concentration for sp | xyz C | varies
 CHEM_SPECIES_CLNO2             | Concentration for sp | xyz C | varies
 CHEM_SPECIES_CLNO3             | Concentration for sp | xyz C | varies
 CHEM_SPECIES_HOCL              | Concentration for sp | xyz C | varies
 CHEM_SPECIES_CLO               | Concentration for sp | xyz C | varies
 CHEM_SPECIES_CL                | Concentration for sp | xyz C | varies
 CHEM_SPECIES_H2402             | Concentration for sp | xyz C | varies
 CHEM_SPECIES_H1301             | Concentration for sp | xyz C | varies
 CHEM_SPECIES_H1211             | Concentration for sp | xyz C | varies
 CHEM_SPECIES_HCFC22            | Concentration for sp | xyz C | varies
 CHEM_SPECIES_CFC12             | Concentration for sp | xyz C | varies
 CHEM_SPECIES_CFC11             | Concentration for sp | xyz C | varies
 CHEM_SPECIES_HCFC142B          | Concentration for sp | xyz C | varies
 CHEM_SPECIES_HCFC141B          | Concentration for sp | xyz C | varies
 CHEM_SPECIES_HCFC123           | Concentration for sp | xyz C | varies
 CHEM_SPECIES_CFC115            | Concentration for sp | xyz C | varies
 CHEM_SPECIES_CFC114            | Concentration for sp | xyz C | varies
 CHEM_SPECIES_CFC113            | Concentration for sp | xyz C | varies
 CHEM_SPECIES_CH3CCL3           | Concentration for sp | xyz C | varies
 CHEM_SPECIES_CH3CL             | Concentration for sp | xyz C | varies
 CHEM_SPECIES_CCL4              | Concentration for sp | xyz C | varies
 CHEM_SPECIES_HCL               | Concentration for sp | xyz C | varies
 CHEM_SPECIES_BRCL              | Concentration for sp | xyz C | varies
 CHEM_SPECIES_CH4               | Concentration for sp | xyz C | varies
 CHEM_SPECIES_OCS               | Concentration for sp | xyz C | varies
 CHEM_SPECIES_N2O               | Concentration for sp | xyz C | varies
 CHEM_SPECIES_HC187             | Concentration for sp | xyz C | varies
 CHEM_SPECIES_IPMN              | Concentration for sp | xyz C | varies
 CHEM_SPECIES_INDIOL            | Concentration for sp | xyz C | varies
 CHEM_SPECIES_MONITA            | Concentration for sp | xyz C | varies
 CHEM_SPECIES_IONITA            | Concentration for sp | xyz C | varies
 CHEM_SPECIES_HONIT             | Concentration for sp | xyz C | varies
 CHEM_SPECIES_MONITU            | Concentration for sp | xyz C | varies
 CHEM_SPECIES_MONITS            | Concentration for sp | xyz C | varies
 CHEM_SPECIES_ISN1OA            | Concentration for sp | xyz C | varies
 CHEM_SPECIES_ISN1OG            | Concentration for sp | xyz C | varies
 CHEM_SPECIES_LVOCOA            | Concentration for sp | xyz C | varies
 CHEM_SPECIES_LVOC              | Concentration for sp | xyz C | varies
 CHEM_SPECIES_SOAMG             | Concentration for sp | xyz C | varies
 CHEM_SPECIES_SOAGX             | Concentration for sp | xyz C | varies
 CHEM_SPECIES_SOAME             | Concentration for sp | xyz C | varies
 CHEM_SPECIES_SOAIE             | Concentration for sp | xyz C | varies
 CHEM_SPECIES_IMAE              | Concentration for sp | xyz C | varies
 CHEM_SPECIES_RIPD              | Concentration for sp | xyz C | varies
 CHEM_SPECIES_RIPB              | Concentration for sp | xyz C | varies
 CHEM_SPECIES_RIPA              | Concentration for sp | xyz C | varies
 CHEM_SPECIES_ISN1              | Concentration for sp | xyz C | varies
 CHEM_SPECIES_IEPOXD            | Concentration for sp | xyz C | varies
 CHEM_SPECIES_IEPOXB            | Concentration for sp | xyz C | varies
 CHEM_SPECIES_IEPOXA            | Concentration for sp | xyz C | varies
 CHEM_SPECIES_HCOOH             | Concentration for sp | xyz C | varies
 CHEM_SPECIES_ETHLN             | Concentration for sp | xyz C | varies
 CHEM_SPECIES_DHDN              | Concentration for sp | xyz C | varies
 CHEM_SPECIES_HPALD             | Concentration for sp | xyz C | varies
 CHEM_SPECIES_ACTA              | Concentration for sp | xyz C | varies
 CHEM_SPECIES_GLYX              | Concentration for sp | xyz C | varies
 CHEM_SPECIES_MGLY              | Concentration for sp | xyz C | varies
 CHEM_SPECIES_EOH               | Concentration for sp | xyz C | varies
 CHEM_SPECIES_SOAS              | Concentration for sp | xyz C | varies
 CHEM_SPECIES_SOAP              | Concentration for sp | xyz C | varies
 CHEM_SPECIES_MTPO              | Concentration for sp | xyz C | varies
 CHEM_SPECIES_LIMO              | Concentration for sp | xyz C | varies
 CHEM_SPECIES_MTPA              | Concentration for sp | xyz C | varies
 CHEM_SPECIES_XYLE              | Concentration for sp | xyz C | varies
 CHEM_SPECIES_TOLU              | Concentration for sp | xyz C | varies
 CHEM_SPECIES_BENZ              | Concentration for sp | xyz C | varies
 CHEM_SPECIES_HNO2              | Concentration for sp | xyz C | varies
 CHEM_SPECIES_NO3               | Concentration for sp | xyz C | varies
 CHEM_SPECIES_NO2               | Concentration for sp | xyz C | varies
 CHEM_SPECIES_MAP               | Concentration for sp | xyz C | varies
 CHEM_SPECIES_MACRN             | Concentration for sp | xyz C | varies
 CHEM_SPECIES_MVKN              | Concentration for sp | xyz C | varies
 CHEM_SPECIES_GLYC              | Concentration for sp | xyz C | varies
 CHEM_SPECIES_HAC               | Concentration for sp | xyz C | varies
 CHEM_SPECIES_PROPNN            | Concentration for sp | xyz C | varies
 CHEM_SPECIES_MOBA              | Concentration for sp | xyz C | varies
 CHEM_SPECIES_ISOPNB            | Concentration for sp | xyz C | varies
 CHEM_SPECIES_ISOPND            | Concentration for sp | xyz C | varies
 CHEM_SPECIES_MPN               | Concentration for sp | xyz C | varies
 CHEM_SPECIES_CH3BR             | Concentration for sp | xyz C | varies
 CHEM_SPECIES_CH2BR2            | Concentration for sp | xyz C | varies
 CHEM_SPECIES_CHBR3             | Concentration for sp | xyz C | varies
 CHEM_SPECIES_BRNO3             | Concentration for sp | xyz C | varies
 CHEM_SPECIES_BRNO2             | Concentration for sp | xyz C | varies
 CHEM_SPECIES_HBR               | Concentration for sp | xyz C | varies
 CHEM_SPECIES_HOBR              | Concentration for sp | xyz C | varies
 CHEM_SPECIES_BRO               | Concentration for sp | xyz C | varies
 CHEM_SPECIES_BR                | Concentration for sp | xyz C | varies
 CHEM_SPECIES_BR2               | Concentration for sp | xyz C | varies
 CHEM_SPECIES_SALC              | Concentration for sp | xyz C | varies
 CHEM_SPECIES_SALA              | Concentration for sp | xyz C | varies
 CHEM_SPECIES_DST4              | Concentration for sp | xyz C | varies
 CHEM_SPECIES_DST3              | Concentration for sp | xyz C | varies
 CHEM_SPECIES_DST2              | Concentration for sp | xyz C | varies
 CHEM_SPECIES_DST1              | Concentration for sp | xyz C | varies
 CHEM_SPECIES_OCPO              | Concentration for sp | xyz C | varies
 CHEM_SPECIES_BCPO              | Concentration for sp | xyz C | varies
 CHEM_SPECIES_OCPI              | Concentration for sp | xyz C | varies
 CHEM_SPECIES_BCPI              | Concentration for sp | xyz C | varies
 CHEM_SPECIES_NITS              | Concentration for sp | xyz C | varies
 CHEM_SPECIES_NIT               | Concentration for sp | xyz C | varies
 CHEM_SPECIES_NH4               | Concentration for sp | xyz C | varies
 CHEM_SPECIES_NH3               | Concentration for sp | xyz C | varies
 CHEM_SPECIES_MSA               | Concentration for sp | xyz C | varies
 CHEM_SPECIES_SO4S              | Concentration for sp | xyz C | varies
 CHEM_SPECIES_SO4               | Concentration for sp | xyz C | varies
 CHEM_SPECIES_SO2               | Concentration for sp | xyz C | varies
 CHEM_SPECIES_DMS               | Concentration for sp | xyz C | varies
 CHEM_SPECIES_MP                | Concentration for sp | xyz C | varies
 CHEM_SPECIES_HNO4              | Concentration for sp | xyz C | varies
 CHEM_SPECIES_N2O5              | Concentration for sp | xyz C | varies
 CHEM_SPECIES_C2H6              | Concentration for sp | xyz C | varies
 CHEM_SPECIES_CH2O              | Concentration for sp | xyz C | varies
 CHEM_SPECIES_C3H8              | Concentration for sp | xyz C | varies
 CHEM_SPECIES_PRPE              | Concentration for sp | xyz C | varies
 CHEM_SPECIES_R4N2              | Concentration for sp | xyz C | varies
 CHEM_SPECIES_PPN               | Concentration for sp | xyz C | varies
 CHEM_SPECIES_NPMN              | Concentration for sp | xyz C | varies
 CHEM_SPECIES_MACR              | Concentration for sp | xyz C | varies
 CHEM_SPECIES_MVK               | Concentration for sp | xyz C | varies
 CHEM_SPECIES_RCHO              | Concentration for sp | xyz C | varies
 CHEM_SPECIES_ALD2              | Concentration for sp | xyz C | varies
 CHEM_SPECIES_MEK               | Concentration for sp | xyz C | varies
 CHEM_SPECIES_ACET              | Concentration for sp | xyz C | varies
 CHEM_SPECIES_H2O2              | Concentration for sp | xyz C | varies
 CHEM_SPECIES_HNO3              | Concentration for sp | xyz C | varies
 CHEM_SPECIES_ISOP              | Concentration for sp | xyz C | varies
 CHEM_SPECIES_ALK4              | Concentration for sp | xyz C | varies
 CHEM_SPECIES_CO                | Concentration for sp | xyz C | varies
 CHEM_SPECIES_PAN               | Concentration for sp | xyz C | varies
 CHEM_SPECIES_O3                | Concentration for sp | xyz C | varies
 CHEM_SPECIES_NO                | Concentration for sp | xyz C | varies
 ###############################################################################

Allocating the following fields of the State_Diag object:
===============================================================================
 State_Diag%SpeciesConc           is registered as: SpeciesConc
 State_Diag%BudgetEmisDryDepFull  is registered as: BudgetEmisDryDepFull
 State_Diag%BudgetEmisDryDepTrop  is registered as: BudgetEmisDryDepTrop
 State_Diag%BudgetEmisDryDepPBL   is registered as: BudgetEmisDryDepPBL
 State_Diag%BudgetMixingFull      is registered as: BudgetMixingFull
 State_Diag%BudgetMixingTrop      is registered as: BudgetMixingTrop
 State_Diag%BudgetMixingPBL       is registered as: BudgetMixingPBL
 State_Diag%BudgetConvectionFull  is registered as: BudgetConvectionFull
 State_Diag%BudgetConvectionTrop  is registered as: BudgetConvectionTrop
 State_Diag%BudgetConvectionPBL   is registered as: BudgetConvectionPBL
 State_Diag%BudgetChemistryFull   is registered as: BudgetChemistryFull
 State_Diag%BudgetChemistryTrop   is registered as: BudgetChemistryTrop
 State_Diag%BudgetChemistryPBL    is registered as: BudgetChemistryPBL
 State_Diag%BudgetWetDepFull      is registered as: BudgetWetDepFull
 State_Diag%BudgetWetDepTrop      is registered as: BudgetWetDepTrop
 State_Diag%BudgetWetDepPBL       is registered as: BudgetWetDepPBL
 State_Diag%DryDepChm             is registered as: DryDepChm
 State_Diag%DryDepMix             is registered as: DryDepMix
 State_Diag%DryDep                is registered as: DryDep
 State_Diag%DryDepVel             is registered as: DryDepVel
 State_Diag%CloudConvFlux         is registered as: CloudConvFlux
 State_Diag%WetLossConvFrac       is registered as: WetLossConvFrac
 State_Diag%WetLossConv           is registered as: WetLossConv
 State_Diag%WetLossLS             is registered as: WetLossLS
 State_Diag%JVal                  is registered as: JVal
 State_Diag%JNoon                 is registered as: JNoon
 State_Diag%HO2concAfterChem      is registered as: HO2concAfterChem
 State_Diag%O1DconcAfterChem      is registered as: O1DconcAfterChem
 State_Diag%O3PconcAfterChem      is registered as: O3PconcAfterChem
 State_Diag%ProdSO4fromHOBrInClou is registered as: ProdSO4fromHOBrInCloud
 State_Diag%ProdSO4fromSRHOBr     is registered as: ProdSO4fromSRHOBr
 State_Diag%AerMassPOA            is registered as: AerMassPOA
 State_Diag%AerMassSOAGX          is registered as: AerMassSOAGX
 State_Diag%AerMassSOAMG          is registered as: AerMassSOAMG
 State_Diag%OHconcAfterChem       is registered as: OHconcAfterChem
 State_Diag%AODDust               is registered as: AODDust
 State_Diag%AODDustWL1            is registered as: AODDust550nm
 State_Diag%AODHygWL1             is registered as: AODHyg550nm
 State_Diag%AODSOAfromAqIsopWL1   is registered as: AODSOAfromAqIsoprene550nm
 State_Diag%AODSLAWL1             is registered as: AODStratLiquidAer550nm
 State_Diag%AODPSCWL1             is registered as: AODPolarStratCloud550nm
 State_Diag%AerHygGrowth          is registered as: AerHygroscopicGrowth
[...]
Timing for main: time 2018-01-01_11:33:20 on domain   1:    0.81302 elapsed seconds
Timing for main: time 2018-01-01_11:33:30 on domain   1:    0.80500 elapsed seconds
Timing for main: time 2018-01-01_11:33:40 on domain   1:    0.81767 elapsed seconds
Timing for main: time 2018-01-01_11:33:50 on domain   1:    0.81646 elapsed seconds
Timing for main: time 2018-01-01_11:34:00 on domain   1:    0.80732 elapsed seconds
Timing for main: time 2018-01-01_11:34:10 on domain   1:    0.79176 elapsed seconds
Timing for main: time 2018-01-01_11:34:20 on domain   1:    0.83997 elapsed seconds
Timing for main: time 2018-01-01_11:34:30 on domain   1:    0.81075 elapsed seconds
Timing for main: time 2018-01-01_11:34:40 on domain   1:    0.81470 elapsed seconds
Timing for main: time 2018-01-01_11:34:50 on domain   1:    0.81126 elapsed seconds
 max optd  3.0758629E+36
 max taucldi  0.2379547    
 max taucldw  2.1347581E-08
 Switching is not necessary as we are already
 in the right domain!
 GIGC_Chunk_Run: Running for in-PET grid #           1
 GIGC_Chunk_Run: Received new grid IM, JM, LM =          20          14
          49
     - DO_STRAT_CHEM: Linearized strat chemistry at 2018/01/01 11:34
     - LINOZ_CHEM3: Doing LINOZ
 =================================================
 W R F - G C   T I M E R S
    Domain           1 (Units: s)
 =================================================
  => Coupler Component                       8.727
   -- Physics & Parameterization             2.353
   -- Diagnostics Out                        0.000
  => GEOS-Chem Column                      393.816
  ===> Total Chemistry                     402.543
  => WRF                                  3829.452
  ===> Total WRF-GC                       4231.994
Timing for main: time 2018-01-01_11:35:00 on domain   1:    3.00322 elapsed seconds
Timing for main: time 2018-01-01_11:35:10 on domain   1:    1.83861 elapsed seconds
Timing for main: time 2018-01-01_11:35:20 on domain   1:    0.87323 elapsed seconds
Timing for main: time 2018-01-01_11:35:30 on domain   1:    0.81490 elapsed seconds
Timing for main: time 2018-01-01_11:35:40 on domain   1:    0.80982 elapsed seconds
Timing for main: time 2018-01-01_11:35:50 on domain   1:    0.80987 elapsed seconds
Timing for main: time 2018-01-01_11:36:00 on domain   1:    0.80980 elapsed seconds
Timing for main: time 2018-01-01_11:36:10 on domain   1:    0.80971 elapsed seconds
Timing for main: time 2018-01-01_11:36:20 on domain   1:    0.80778 elapsed seconds
Timing for main: time 2018-01-01_11:36:30 on domain   1:    0.81519 elapsed seconds
Timing for main: time 2018-01-01_11:36:40 on domain   1:    0.80705 elapsed seconds
Timing for main: time 2018-01-01_11:36:50 on domain   1:    0.81240 elapsed seconds
Timing for main: time 2018-01-01_11:37:00 on domain   1:    0.82147 elapsed seconds
Timing for main: time 2018-01-01_11:37:10 on domain   1:    0.81295 elapsed seconds
Timing for main: time 2018-01-01_11:37:20 on domain   1:    0.80868 elapsed seconds
Timing for main: time 2018-01-01_11:37:30 on domain   1:    0.81242 elapsed seconds
Timing for main: time 2018-01-01_11:37:40 on domain   1:    0.81883 elapsed seconds
Timing for main: time 2018-01-01_11:37:50 on domain   1:    0.80720 elapsed seconds
Timing for main: time 2018-01-01_11:38:00 on domain   1:    0.81307 elapsed seconds
Timing for main: time 2018-01-01_11:38:10 on domain   1:    0.81385 elapsed seconds
Timing for main: time 2018-01-01_11:38:20 on domain   1:    0.80397 elapsed seconds
Timing for main: time 2018-01-01_11:38:30 on domain   1:    0.80888 elapsed seconds
Timing for main: time 2018-01-01_11:38:40 on domain   1:    0.83205 elapsed seconds
Timing for main: time 2018-01-01_11:38:50 on domain   1:    0.80121 elapsed seconds
Timing for main: time 2018-01-01_11:39:00 on domain   1:    0.81723 elapsed seconds
Timing for main: time 2018-01-01_11:39:10 on domain   1:    0.81179 elapsed seconds
Timing for main: time 2018-01-01_11:39:20 on domain   1:    0.80145 elapsed seconds
Timing for main: time 2018-01-01_11:39:30 on domain   1:    0.78380 elapsed seconds
Timing for main: time 2018-01-01_11:39:40 on domain   1:    0.84572 elapsed seconds
Timing for main: time 2018-01-01_11:39:50 on domain   1:    0.81232 elapsed seconds
 max optd  3.0758629E+36
 max taucldi  0.2457018    
 max taucldw  2.1502498E-08
 Switching is not necessary as we are already
 in the right domain!
 GIGC_Chunk_Run: Running for in-PET grid #           1
 GIGC_Chunk_Run: Received new grid IM, JM, LM =          20          14
          49
     - DO_STRAT_CHEM: Linearized strat chemistry at 2018/01/01 11:39
     - LINOZ_CHEM3: Doing LINOZ
 =================================================
 W R F - G C   T I M E R S
    Domain           1 (Units: s)
 =================================================
  => Coupler Component                       8.791
   -- Physics & Parameterization             2.371
   -- Diagnostics Out                        0.000
  => GEOS-Chem Column                      395.923
  ===> Total Chemistry                     404.715
  => WRF                                  3854.909
  ===> Total WRF-GC                       4259.624
Timing for main: time 2018-01-01_11:40:00 on domain   1:    2.98313 elapsed seconds
Timing for main: time 2018-01-01_11:40:10 on domain   1:    1.84318 elapsed seconds
Timing for main: time 2018-01-01_11:40:20 on domain   1:    0.82212 elapsed seconds
Timing for main: time 2018-01-01_11:40:30 on domain   1:    0.82339 elapsed seconds
Timing for main: time 2018-01-01_11:40:40 on domain   1:    0.81104 elapsed seconds
Timing for main: time 2018-01-01_11:40:50 on domain   1:    0.82136 elapsed seconds
Timing for main: time 2018-01-01_11:41:00 on domain   1:    0.81606 elapsed seconds
Timing for main: time 2018-01-01_11:41:10 on domain   1:    0.81449 elapsed seconds
Timing for main: time 2018-01-01_11:41:20 on domain   1:    0.82005 elapsed seconds
Timing for main: time 2018-01-01_11:41:30 on domain   1:    0.80900 elapsed seconds
Timing for main: time 2018-01-01_11:41:40 on domain   1:    0.81649 elapsed seconds
Timing for main: time 2018-01-01_11:41:50 on domain   1:    0.80137 elapsed seconds
Timing for main: time 2018-01-01_11:42:00 on domain   1:    0.81379 elapsed seconds
Timing for main: time 2018-01-01_11:42:10 on domain   1:    0.81242 elapsed seconds
Timing for main: time 2018-01-01_11:42:20 on domain   1:    0.81439 elapsed seconds
Timing for main: time 2018-01-01_11:42:30 on domain   1:    0.81888 elapsed seconds
Timing for main: time 2018-01-01_11:42:40 on domain   1:    0.81213 elapsed seconds
Timing for main: time 2018-01-01_11:42:50 on domain   1:    0.77973 elapsed seconds
Timing for main: time 2018-01-01_11:43:00 on domain   1:    0.84193 elapsed seconds
Timing for main: time 2018-01-01_11:43:10 on domain   1:    0.81781 elapsed seconds
Timing for main: time 2018-01-01_11:43:20 on domain   1:    0.80450 elapsed seconds
Timing for main: time 2018-01-01_11:43:30 on domain   1:    0.81927 elapsed seconds
Timing for main: time 2018-01-01_11:43:40 on domain   1:    0.81295 elapsed seconds
Timing for main: time 2018-01-01_11:43:50 on domain   1:    0.80897 elapsed seconds
Timing for main: time 2018-01-01_11:44:00 on domain   1:    0.81412 elapsed seconds
Timing for main: time 2018-01-01_11:44:10 on domain   1:    0.81047 elapsed seconds
Timing for main: time 2018-01-01_11:44:20 on domain   1:    0.81658 elapsed seconds
Timing for main: time 2018-01-01_11:44:30 on domain   1:    0.80800 elapsed seconds
Timing for main: time 2018-01-01_11:44:40 on domain   1:    0.81646 elapsed seconds
Timing for main: time 2018-01-01_11:44:50 on domain   1:    0.81363 elapsed seconds
 max optd  3.0758629E+36
 max taucldi  0.2669165    
 max taucldw  2.1651195E-08
 Switching is not necessary as we are already
 in the right domain!
 GIGC_Chunk_Run: Running for in-PET grid #           1
 GIGC_Chunk_Run: Received new grid IM, JM, LM =          20          14
          49
     - DO_STRAT_CHEM: Linearized strat chemistry at 2018/01/01 11:44
     - LINOZ_CHEM3: Doing LINOZ
 =================================================
 W R F - G C   T I M E R S
    Domain           1 (Units: s)
 =================================================
  => Coupler Component                       8.855
   -- Physics & Parameterization             2.387
   -- Diagnostics Out                        0.000
  => GEOS-Chem Column                      398.027
  ===> Total Chemistry                     406.882
  => WRF                                  3880.361
  ===> Total WRF-GC                       4287.244
Timing for main: time 2018-01-01_11:45:00 on domain   1:    2.97757 elapsed seconds
Timing for main: time 2018-01-01_11:45:10 on domain   1:    2.29894 elapsed seconds
Timing for main: time 2018-01-01_11:45:20 on domain   1:    0.91102 elapsed seconds
Timing for main: time 2018-01-01_11:45:30 on domain   1:    0.80833 elapsed seconds
Timing for main: time 2018-01-01_11:45:40 on domain   1:    0.76236 elapsed seconds
Timing for main: time 2018-01-01_11:45:50 on domain   1:    0.86388 elapsed seconds
Timing for main: time 2018-01-01_11:46:00 on domain   1:    0.81652 elapsed seconds
Timing for main: time 2018-01-01_11:46:10 on domain   1:    0.81675 elapsed seconds
Timing for main: time 2018-01-01_11:46:20 on domain   1:    0.80656 elapsed seconds
Timing for main: time 2018-01-01_11:46:30 on domain   1:    0.80924 elapsed seconds
Timing for main: time 2018-01-01_11:46:40 on domain   1:    0.81709 elapsed seconds
Timing for main: time 2018-01-01_11:46:50 on domain   1:    0.80646 elapsed seconds
Timing for main: time 2018-01-01_11:47:00 on domain   1:    0.81215 elapsed seconds
Timing for main: time 2018-01-01_11:47:10 on domain   1:    0.80994 elapsed seconds
Timing for main: time 2018-01-01_11:47:20 on domain   1:    0.81090 elapsed seconds
Timing for main: time 2018-01-01_11:47:30 on domain   1:    0.80622 elapsed seconds
Timing for main: time 2018-01-01_11:47:40 on domain   1:    0.81473 elapsed seconds
Timing for main: time 2018-01-01_11:47:50 on domain   1:    0.81042 elapsed seconds
Timing for main: time 2018-01-01_11:48:00 on domain   1:    0.81472 elapsed seconds
Timing for main: time 2018-01-01_11:48:10 on domain   1:    0.81474 elapsed seconds
Timing for main: time 2018-01-01_11:48:20 on domain   1:    0.81200 elapsed seconds
Timing for main: time 2018-01-01_11:48:30 on domain   1:    0.81849 elapsed seconds
Timing for main: time 2018-01-01_11:48:40 on domain   1:    0.81007 elapsed seconds
Timing for main: time 2018-01-01_11:48:50 on domain   1:    0.80757 elapsed seconds
Timing for main: time 2018-01-01_11:49:00 on domain   1:    0.81422 elapsed seconds
Timing for main: time 2018-01-01_11:49:10 on domain   1:    0.81599 elapsed seconds
Timing for main: time 2018-01-01_11:49:20 on domain   1:    0.81065 elapsed seconds
Timing for main: time 2018-01-01_11:49:30 on domain   1:    0.81547 elapsed seconds
Timing for main: time 2018-01-01_11:49:40 on domain   1:    0.81411 elapsed seconds
Timing for main: time 2018-01-01_11:49:50 on domain   1:    0.81472 elapsed seconds
 max optd  3.0758629E+36
 max taucldi  0.2713749    
 max taucldw  2.1799472E-08
 Switching is not necessary as we are already
 in the right domain!
 GIGC_Chunk_Run: Running for in-PET grid #           1
 GIGC_Chunk_Run: Received new grid IM, JM, LM =          20          14
          49
     - DO_STRAT_CHEM: Linearized strat chemistry at 2018/01/01 11:49
     - LINOZ_CHEM3: Doing LINOZ
 =================================================
 W R F - G C   T I M E R S
    Domain           1 (Units: s)
 =================================================
  => Coupler Component                       8.921
   -- Physics & Parameterization             2.402
   -- Diagnostics Out                        0.000
  => GEOS-Chem Column                      400.133
  ===> Total Chemistry                     409.054
  => WRF                                  3906.327
  ===> Total WRF-GC                       4315.381
Timing for main: time 2018-01-01_11:50:00 on domain   1:    2.98349 elapsed seconds
Timing for main: time 2018-01-01_11:50:10 on domain   1:    2.15364 elapsed seconds
Timing for main: time 2018-01-01_11:50:20 on domain   1:    0.88273 elapsed seconds
Timing for main: time 2018-01-01_11:50:30 on domain   1:    0.81599 elapsed seconds
Timing for main: time 2018-01-01_11:50:40 on domain   1:    0.81414 elapsed seconds
Timing for main: time 2018-01-01_11:50:50 on domain   1:    0.80800 elapsed seconds
Timing for main: time 2018-01-01_11:51:00 on domain   1:    0.81338 elapsed seconds
Timing for main: time 2018-01-01_11:51:10 on domain   1:    0.81525 elapsed seconds
Timing for main: time 2018-01-01_11:51:20 on domain   1:    0.80953 elapsed seconds
Timing for main: time 2018-01-01_11:51:30 on domain   1:    0.81428 elapsed seconds
Timing for main: time 2018-01-01_11:51:40 on domain   1:    0.81230 elapsed seconds
Timing for main: time 2018-01-01_11:51:50 on domain   1:    0.80571 elapsed seconds
Timing for main: time 2018-01-01_11:52:00 on domain   1:    0.81416 elapsed seconds
Timing for main: time 2018-01-01_11:52:10 on domain   1:    0.80969 elapsed seconds
Timing for main: time 2018-01-01_11:52:20 on domain   1:    0.81761 elapsed seconds
Timing for main: time 2018-01-01_11:52:30 on domain   1:    0.81500 elapsed seconds
Timing for main: time 2018-01-01_11:52:40 on domain   1:    0.81050 elapsed seconds
Timing for main: time 2018-01-01_11:52:50 on domain   1:    0.80813 elapsed seconds
Timing for main: time 2018-01-01_11:53:00 on domain   1:    0.80198 elapsed seconds
Timing for main: time 2018-01-01_11:53:10 on domain   1:    0.81846 elapsed seconds
Timing for main: time 2018-01-01_11:53:20 on domain   1:    0.81232 elapsed seconds
Timing for main: time 2018-01-01_11:53:30 on domain   1:    0.81473 elapsed seconds
Timing for main: time 2018-01-01_11:53:40 on domain   1:    0.81328 elapsed seconds
Timing for main: time 2018-01-01_11:53:50 on domain   1:    0.81350 elapsed seconds
Timing for main: time 2018-01-01_11:54:00 on domain   1:    0.81973 elapsed seconds
Timing for main: time 2018-01-01_11:54:10 on domain   1:    0.80793 elapsed seconds
Timing for main: time 2018-01-01_11:54:20 on domain   1:    0.81651 elapsed seconds
Timing for main: time 2018-01-01_11:54:30 on domain   1:    0.81574 elapsed seconds
Timing for main: time 2018-01-01_11:54:40 on domain   1:    0.81132 elapsed seconds
Timing for main: time 2018-01-01_11:54:50 on domain   1:    0.80478 elapsed seconds
 max optd  3.0758629E+36
 max taucldi  0.2530182    
 max taucldw  2.1949235E-08
 Switching is not necessary as we are already
 in the right domain!
 GIGC_Chunk_Run: Running for in-PET grid #           1
 GIGC_Chunk_Run: Received new grid IM, JM, LM =          20          14
          49
     - DO_STRAT_CHEM: Linearized strat chemistry at 2018/01/01 11:54
     - LINOZ_CHEM3: Doing LINOZ
 =================================================
 W R F - G C   T I M E R S
    Domain           1 (Units: s)
 =================================================
  => Coupler Component                       8.990
   -- Physics & Parameterization             2.418
   -- Diagnostics Out                        0.000
  => GEOS-Chem Column                      402.200
  ===> Total Chemistry                     411.190
  => WRF                                  3932.124
  ===> Total WRF-GC                       4343.314
Timing for main: time 2018-01-01_11:55:00 on domain   1:    2.95418 elapsed seconds
Timing for main: time 2018-01-01_11:55:10 on domain   1:    2.15142 elapsed seconds
Timing for main: time 2018-01-01_11:55:20 on domain   1:    0.78884 elapsed seconds
Timing for main: time 2018-01-01_11:55:30 on domain   1:    0.87410 elapsed seconds
Timing for main: time 2018-01-01_11:55:40 on domain   1:    0.81507 elapsed seconds
Timing for main: time 2018-01-01_11:55:50 on domain   1:    0.81816 elapsed seconds
Timing for main: time 2018-01-01_11:56:00 on domain   1:    0.80767 elapsed seconds
Timing for main: time 2018-01-01_11:56:10 on domain   1:    0.81064 elapsed seconds
Timing for main: time 2018-01-01_11:56:20 on domain   1:    0.81565 elapsed seconds
Timing for main: time 2018-01-01_11:56:30 on domain   1:    0.81678 elapsed seconds
Timing for main: time 2018-01-01_11:56:40 on domain   1:    0.80864 elapsed seconds
Timing for main: time 2018-01-01_11:56:50 on domain   1:    0.80634 elapsed seconds
Timing for main: time 2018-01-01_11:57:00 on domain   1:    0.81438 elapsed seconds
Timing for main: time 2018-01-01_11:57:10 on domain   1:    0.80779 elapsed seconds
Timing for main: time 2018-01-01_11:57:20 on domain   1:    0.81622 elapsed seconds
Timing for main: time 2018-01-01_11:57:30 on domain   1:    0.80019 elapsed seconds
Timing for main: time 2018-01-01_11:57:40 on domain   1:    0.81652 elapsed seconds
Timing for main: time 2018-01-01_11:57:50 on domain   1:    0.81410 elapsed seconds
Timing for main: time 2018-01-01_11:58:00 on domain   1:    0.80853 elapsed seconds
Timing for main: time 2018-01-01_11:58:10 on domain   1:    0.80932 elapsed seconds
Timing for main: time 2018-01-01_11:58:20 on domain   1:    0.81450 elapsed seconds
Timing for main: time 2018-01-01_11:58:30 on domain   1:    0.80690 elapsed seconds
Timing for main: time 2018-01-01_11:58:40 on domain   1:    0.80782 elapsed seconds
Timing for main: time 2018-01-01_11:58:50 on domain   1:    0.80935 elapsed seconds
Timing for main: time 2018-01-01_11:59:00 on domain   1:    0.81457 elapsed seconds
Timing for main: time 2018-01-01_11:59:10 on domain   1:    0.81067 elapsed seconds
Timing for main: time 2018-01-01_11:59:20 on domain   1:    0.81279 elapsed seconds
Timing for main: time 2018-01-01_11:59:30 on domain   1:    0.81586 elapsed seconds
Timing for main: time 2018-01-01_11:59:40 on domain   1:    0.81836 elapsed seconds
Timing for main: time 2018-01-01_11:59:50 on domain   1:    0.80461 elapsed seconds
 max optd  3.0758629E+36
 max taucldi  0.2370328    
 max taucldw  0.3046383    
 Switching is not necessary as we are already
 in the right domain!
 GIGC_Chunk_Run: Running for in-PET grid #           1
 GIGC_Chunk_Run: Received new grid IM, JM, LM =          20          14
          49
     - DO_STRAT_CHEM: Linearized strat chemistry at 2018/01/01 11:59
     - LINOZ_CHEM3: Doing LINOZ
 =================================================
 W R F - G C   T I M E R S
    Domain           1 (Units: s)
 =================================================
  => Coupler Component                       9.049
   -- Physics & Parameterization             2.435
   -- Diagnostics Out                        0.000
  => GEOS-Chem Column                      404.310
  ===> Total Chemistry                     413.359
  => WRF                                  3957.873
  ===> Total WRF-GC                       4371.232
Timing for main: time 2018-01-01_12:00:00 on domain   1:    2.99245 elapsed seconds
Timing for Writing wrfout_d01_2018-01-01_12:00:00 for domain        1:  246.39764 elapsed seconds
d01 2018-01-01_12:00:00 wrf: SUCCESS COMPLETE WRF
##IPMv2.0.6########################################################
#
# command   : /fsx/WRFV3/run/./wrf.exe  
# start     : Tue Dec 10 03:25:34 2019   host      : ip-172-31-0-107 
# stop      : Tue Dec 10 04:49:29 2019   wallclock : 5032.77
# mpi_tasks : 2304 on 63 nodes           %comm     : 52.11
# mem [GB]  : 2365.31                    gflop/sec : 0.00
#
#           :       [total]        <avg>          min          max
# wallclock :    11592461.61      5031.45      5030.90      5032.77 
# MPI       :    6041303.66      2622.09      2318.66      3230.01 
# %wall     :
#   MPI     :                      52.11        46.09        64.20 
# #calls    :
#   MPI     :    11585783040      5028551      3140635      5110635
# mem [GB]  :       2365.31         1.03         0.85         1.76 
#
###################################################################
