taskid: 417 hostname: ip-172-31-1-149
Quilting with   1 groups of   0 I/O tasks.
 Ntasks in X           64 , ntasks in Y           72
--- WARNING: traj_opt is zero, but num_traj is not zero; setting num_traj to zero.
--- NOTE: sst_update is 0, setting io_form_auxinput4 = 0 and auxinput4_interval = 0 for all domains
--- NOTE: grid_fdda is 0 for domain      1, setting gfdda interval and ending time to 0 for that domain.
--- NOTE: both grid_sfdda and pxlsm_soil_nudge are 0 for domain      1, setting sgfdda interval and ending time to 0 for that domain.
--- NOTE: obs_nudge_opt is 0 for domain      1, setting obs nudging interval and ending time to 0 for that domain.
--- NOTE: bl_pbl_physics /= 4, implies mfshconv must be 0, resetting
Need MYNN PBL for icloud_bl = 1, resetting to 0
*************************************
No physics suite selected.
Physics options will be used directly from the namelist.
*************************************
--- NOTE: RRTMG radiation is in use, setting:  levsiz=59, alevsiz=12, no_src_types=6
--- NOTE: num_soil_layers has been set to      4
WRF V3.9.1.1 MODEL
 *************************************
 Parent domain
 ids,ide,jds,jde            1         950           1         650
 ims,ime,jms,jme          483         510          49          71
 ips,ipe,jps,jpe          490         503          56          64
 *************************************
DYNAMICS OPTION: Eulerian Mass Coordinate
   alloc_space_field: domain            1 ,              197508740  bytes allocated
  med_initialdata_input: calling input_input
Max map factor in domain 1 =  1.40. Scale the dt in the model accordingly.
INPUT LandUse = "USGS"
 LANDUSE TYPE = "USGS" FOUND          33  CATEGORIES           2  SEASONS WATER CATEGORY =           16  SNOW CATEGORY =           24
INITIALIZE THREE Noah LSM RELATED TABLES
*****************************************************************
  __          _______  ______       _____  _____ _    _ _____
  \ \        / /  __ \|  ____|     / ____|/ ____| |  | |  __ \
   \ \  /\  / /| |__) | |__ ______| |  __| |    | |__| | |__) |
    \ \/  \/ / |  _  /|  __|______| | |_ | |    |  __  |  ___/
     \  /\  /  | | \ \| |         | |__| | |____| |  | | |
      \/  \/   |_|  \_\_|          \_____|\_____|_|  |_|_|
*****************************************************************
         WRF-GC MODEL, VERSION 1811.11 - WRF BINDINGS
 For errors, suggestions & feedback email linhaipeng@pku.edu.cn
*****************************************************************
    This is domain            1
 ### GIGC_Stateful_Mod: Root CPU, after READ_INPUT_FILE
  Linoz Data:  O3 climatology :                  z*=10, 12, ..., 58                             2.700E-08 1.083E-05
  Linoz Data:  Temperature climatology :         z*=10, 12, ..., 58                             1.859E+02 2.904E+02
  Linoz Data:  Column O3 above box climalology : z*=10, 12, ..., 58                             7.538E-02 3.770E+02
  Linoz Data:  P-L O3 climatology (mr/s):        z*=10, 12, ..., 58                            -1.590E-10 2.835E-11
  Linoz Data:  d(P-L)/dO3 (1/s) :                z*=10, 12, ..., 58                            -8.386E-04 7.556E-09
  Linoz Data:  d(P-L)/dT (mr/K) :                z*=10, 12, ..., 58                            -5.742E-12 4.615E-14
  Linoz Data:  d(P-L)/d(column O3) (mr/DU) :     z*=10, 12, ..., 58                            -1.921E-12 5.038E-10
 ### GIGC_Stateful_Mod: Root CPU, after LINOZ_READ
 %%%%%%%%% GIGC IN-PET GRID SWITCHING HACKS %%%%%%%%%
     (Not very) Proudly brought to you by hplin      
 Some debug information:
 ID:           1
 IM, JM, LM:          14           9          49  will be set as PAR
 Allocs: CMN T GC F
 RC at entry-point:           0
 %%%%%%%%%%%%%%%%%%%%%%%%%%%%%%%%%%%%%%%%%%%%%%%%%%%%
 No need to switch HcoState for ID           1
 Exit RC:            0
 %%%%%%%%%    FINISHED GIGC_Switch_Dims    %%%%%%%%%
 GIGC_Chunk_Init: Received new grid IM, JM, LM =          14           9
          49
     ### GIGC_INIT_SIMULATION: after Input_Opt% setups
     ### GIGC_INIT_SIMULATION: after GC_Init_All
     ### GIGC_INIT_SIMULATION: after GC_Init_Extra
     ### GIGC_INIT_SIMULATION: after INIT_FJX
 # GIGC_CHUNK_MOD: after SV save, ID =           1
 WRFGC chemics_init: Following information regarding Input_Opt% (for all doms)
 After domain           1
 HPC:  T
 LPRT:  F
 DoConv:  T
 DoDryDep:  T
 DoEmis:  T
 DoChem:  T
 DoTurb:  T
 DoWetDep:  T

 tropopause_init: DONE intialized domain            1

 mediation_integrate: med_read_wrf_chem_emissions: Open file wrfchemi_00z_d01
 HOURLY EMISSIONS UPDATE TIME        0.0       0.0
mediation_integrate: med_read_wrf_chem_emissions: Read emissions for time 2018-01-01_00:00:00
open_aux_u : error opening wrffirechemi_d01_2018-01-01_00:00:00 for reading. 100
open_aux_u : error opening wrfchemi_gocart_bg_d01 for reading. 100
d01 2018-01-01_00:00:00 Input data processed for aux input   8 for domain   1
open_aux_u : error opening wrfchemv_d01 for reading. 100
 Tile Strategy is not specified. Assuming 1D-Y
WRF TILE   1 IS    490 IE    503 JS     56 JE     64
WRF NUMBER OF TILES =   1
 max optd  2.5500620E+20
 max taucldi  3.2622252E+15
 max taucldw  0.0000000E+00
 =================================================
 W R F - G C   T I M E R S
    Domain           1 (Units: s)
 =================================================
  => Coupler Component                       0.026
   -- Physics & Parameterization             0.001
   -- Diagnostics Out                        0.000
  => GEOS-Chem Column                        0.000
  ===> Total Chemistry                       0.026
  => WRF                                     0.000
  ===> Total WRF-GC                          0.026
 max optd  2.5500620E+20
 max taucldi  3.2622252E+15
 max taucldw  1.0000007E-14
 %%%%%%%%% GIGC IN-PET GRID SWITCHING HACKS %%%%%%%%%
     (Not very) Proudly brought to you by hplin      
 Some debug information:
 ID:           1
 IM, JM, LM:          14           9          49  will be set as PAR
 Allocs: CMN T GC T
 RC at entry-point:           0
 %%%%%%%%%%%%%%%%%%%%%%%%%%%%%%%%%%%%%%%%%%%%%%%%%%%%
 No need to switch HcoState for ID           1
 Debug HcoState nSpc, NX, NY, NZ         163          14           9          49
 Exit RC:            0
 %%%%%%%%%    FINISHED GIGC_Switch_Dims    %%%%%%%%%
 GIGC_Chunk_Run: Running for in-PET grid #           1
 GIGC_Chunk_Run: Received new grid IM, JM, LM =          14           9
          49
HEMCO: Opening /fsx/HEMCO/BIOFUEL/v2014-07/biofuel.geos.4x5.nc
HEMCO: Opening /fsx/HEMCO/BROMINE/v2015-02/Bromocarb_Liang2010.nc
HEMCO: Opening /fsx/HEMCO/ACET/v2014-07/ACET_seawater.generic.1x1.nc
HEMCO: Opening /fsx/HEMCO/SOILNOX/v2014-07/DepReservoirDefault.nc
HEMCO: Opening /fsx/HEMCO/SOILNOX/v2014-07/soilNOx.landtype.generic.025x025.1L.nc
HEMCO: Opening /fsx/HEMCO/SOILNOX/v2014-07/soilNOx.climate.generic.05x05.nc
HEMCO: Opening /fsx/HEMCO/DUST_DEAD/v2014-07/dst_tibds.geos.4x5.nc
HEMCO: Opening /fsx/HEMCO/DUST_DEAD/v2014-07/GOCART_src_fn.geos.4x5.nc
HEMCO: Opening /fsx/HEMCO/MEGAN/v2018-05/MEGAN2.1_EF.geos.025x03125.nc
HEMCO: Opening /fsx/HEMCO/MEGAN/v2017-07/CLM4_PFT.geos.025x03125.nc
HEMCO: Opening /fsx/HEMCO/TIMEZONES/v2015-02/timezones_voronoi_1x1.nc
HEMCO: Opening /fsx/HEMCO/STRAT/v2015-01/Bry/GEOSCCM_Bry.200701.day.nc
HEMCO: Opening /fsx/HEMCO/STRAT/v2015-01/Bry/GEOSCCM_Bry.200701.night.nc
HEMCO: Opening /fsx/HEMCO/OMOC/v2018-01/OMOC.DJF.01x01.nc
HEMCO: Opening /fsx/HEMCO/OMOC/v2018-01/OMOC.MAM.01x01.nc
HEMCO: Opening /fsx/HEMCO/OMOC/v2018-01/OMOC.JJA.01x01.nc
HEMCO: Opening /fsx/HEMCO/OMOC/v2018-01/OMOC.SON.01x01.nc
HEMCO: Opening /fsx/HEMCO/AnnualScalar/v2014-07/AnnualScalar.geos.1x1.nc
HEMCO: Opening /fsx/HEMCO/EDGARv42/v2015-02/NO/EDGAR_hourly_NOxScal.nc
HEMCO: Opening /fsx/HEMCO/MASKS/v2018-09/EMEP_mask.geos.1x1.20151222.nc
HEMCO: Opening /fsx/HEMCO/MASKS/v2018-09/Canada_mask.geos.1x1.nc
HEMCO: Opening /fsx/HEMCO/MASKS/v2018-09/SE_Asia_mask.generic.1x1.nc
HEMCO: Opening /fsx/HEMCO/MASKS/v2018-09/MIX_Asia_mask.generic.025x025.nc
HEMCO: Opening /fsx/HEMCO/MASKS/v2018-09/CONUS_Mask.01x01.nc
HEMCO: Opening /fsx/HEMCO/MASKS/v2018-09/AF_LANDMASK.geos.05x0666.global.nc
HEMCO: Opening /fsx/HEMCO/MASKS/v2018-09/China_mask.generic.1x1.nc
HEMCO: Opening /fsx/HEMCO/MASKS/v2018-09/India_mask.generic.1x1.nc
HEMCO: Opening /fsx/HEMCO/AnnualScalar/v2014-07/AnnualScalar.geos.1x1.nc
HEMCO: Opening /fsx/HEMCO/NH3/v2014-07/NH3_geos.4x5.nc
HEMCO: Opening /fsx/HEMCO/NH3/v2018-04/NH3_Arctic_seabirds.nc
HEMCO: Opening /fsx/HEMCO/CEDS/v2018-08/2014/NO-em-anthro_CMIP_CEDS_2014.nc
HEMCO: Opening /fsx/HEMCO/CEDS/v2018-08/2014/CO-em-anthro_CMIP_CEDS_2014.nc
HEMCO: Opening /fsx/HEMCO/CEDS/v2018-08/2014/SO2-em-anthro_CMIP_CEDS_2014.nc
HEMCO: Opening /fsx/HEMCO/CEDS/v2018-08/2014/NH3-em-anthro_CMIP_CEDS_2014.nc
HEMCO: Opening /fsx/HEMCO/CEDS/v2018-08/2014/BC-em-anthro_CMIP_CEDS_2014.nc
HEMCO: Opening /fsx/HEMCO/CEDS/v2018-08/2014/OC-em-anthro_CMIP_CEDS_2014.nc
HEMCO: Opening /fsx/HEMCO/CEDS/v2018-08/2014/EOH-em-anthro_CMIP_CEDS_2014.nc
HEMCO: Opening /fsx/HEMCO/CEDS/v2018-08/2014/C2H6-em-anthro_CMIP_CEDS_2014.nc
HEMCO: Opening /fsx/HEMCO/CEDS/v2018-08/2014/C3H8-em-anthro_CMIP_CEDS_2014.nc
HEMCO: Opening /fsx/HEMCO/CEDS/v2018-08/2014/ALK4_butanes-em-anthro_CMIP_CEDS_2014.nc
HEMCO: Opening /fsx/HEMCO/CEDS/v2018-08/2014/ALK4_pentanes-em-anthro_CMIP_CEDS_2014.nc
HEMCO: Opening /fsx/HEMCO/CEDS/v2018-08/2014/ALK4_hexanes-em-anthro_CMIP_CEDS_2014.nc
HEMCO: Opening /fsx/HEMCO/CEDS/v2018-08/2014/PRPE-em-anthro_CMIP_CEDS_2014.nc
HEMCO: Opening /fsx/HEMCO/CEDS/v2018-08/2014/BENZ-em-anthro_CMIP_CEDS_2014.nc
HEMCO: Opening /fsx/HEMCO/CEDS/v2018-08/2014/TOLU-em-anthro_CMIP_CEDS_2014.nc
HEMCO: Opening /fsx/HEMCO/CEDS/v2018-08/2014/XYLE-em-anthro_CMIP_CEDS_2014.nc
HEMCO: Opening /fsx/HEMCO/CEDS/v2018-08/2014/CH2O-em-anthro_CMIP_CEDS_2014.nc
HEMCO: Opening /fsx/HEMCO/CEDS/v2018-08/2014/ALD2-em-anthro_CMIP_CEDS_2014.nc
HEMCO: Opening /fsx/HEMCO/CEDS/v2018-08/2014/MEK-em-anthro_CMIP_CEDS_2014.nc
HEMCO: Opening /fsx/HEMCO/CEDS/v2018-08/2014/HCOOH-em-anthro_CMIP_CEDS_2014.nc
HEMCO: Opening /fsx/HEMCO/C2H6_2010/v2017-05/C2H6_global_anth_biof.201001.nc
HEMCO: Opening /fsx/HEMCO/NEI2011/v2017-02-MM/01/NEI11_0.1x0.1_201101_monmean.nc
HEMCO: Opening /fsx/HEMCO/NEI2011/v2017-02-MM/01/NEI11_0.1x0.1_201101_monmean_egu.nc
HEMCO: Opening /fsx/HEMCO/NEI2011/v2017-02-MM/01/NEI11_0.1x0.1_201101_monmean_egupk.nc
HEMCO: Opening /fsx/HEMCO/NEI2011/v2017-02-MM/01/NEI11_0.1x0.1_201101_monmean_oilgas.nc
HEMCO: Opening /fsx/HEMCO/NEI2011/v2017-02-MM/01/NEI11_0.1x0.1_201101_monmean_othpt.nc
HEMCO: Opening /fsx/HEMCO/NEI2011/v2017-02-MM/01/NEI11_0.1x0.1_201101_monmean_ptnonipm.nc
HEMCO: Opening /fsx/HEMCO/IODINE/v2017-09/CH3I_monthly_emissions_Ordonez_2012_COARDS.nc
HEMCO: Opening /fsx/HEMCO/IODINE/v2017-09/CH2I2_monthly_emissions_Ordonez_2012_COARDS.nc
HEMCO: Opening /fsx/HEMCO/IODINE/v2017-09/CH2ICl_monthly_emissions_Ordonez_2012_COARDS.nc
HEMCO: Opening /fsx/HEMCO/IODINE/v2017-09/CH2IBr_monthly_emissions_Ordonez_2012_COARDS.nc
HEMCO: Opening /fsx/HEMCO/CEDS/v2018-08/2014/CO-em-anthro_CMIP_CEDS_2014.nc
HEMCO: Opening /fsx/HEMCO/CEDS/v2018-08/2014/SO2-em-anthro_CMIP_CEDS_2014.nc
HEMCO: Opening /fsx/HEMCO/CEDS/v2018-08/2014/NH3-em-anthro_CMIP_CEDS_2014.nc
HEMCO: Opening /fsx/HEMCO/CEDS/v2018-08/2014/BC-em-anthro_CMIP_CEDS_2014.nc
HEMCO: Opening /fsx/HEMCO/CEDS/v2018-08/2014/OC-em-anthro_CMIP_CEDS_2014.nc
HEMCO: Opening /fsx/HEMCO/CEDS/v2018-08/2014/EOH-em-anthro_CMIP_CEDS_2014.nc
HEMCO: Opening /fsx/HEMCO/CEDS/v2018-08/2014/C2H6-em-anthro_CMIP_CEDS_2014.nc
HEMCO: Opening /fsx/HEMCO/CEDS/v2018-08/2014/C3H8-em-anthro_CMIP_CEDS_2014.nc
HEMCO: Opening /fsx/HEMCO/CEDS/v2018-08/2014/ALK4_butanes-em-anthro_CMIP_CEDS_2014.nc
HEMCO: Opening /fsx/HEMCO/CEDS/v2018-08/2014/ALK4_pentanes-em-anthro_CMIP_CEDS_2014.nc
HEMCO: Opening /fsx/HEMCO/CEDS/v2018-08/2014/ALK4_hexanes-em-anthro_CMIP_CEDS_2014.nc
HEMCO: Opening /fsx/HEMCO/CEDS/v2018-08/2014/PRPE-em-anthro_CMIP_CEDS_2014.nc
HEMCO: Opening /fsx/HEMCO/CEDS/v2018-08/2014/BENZ-em-anthro_CMIP_CEDS_2014.nc
HEMCO: Opening /fsx/HEMCO/CEDS/v2018-08/2014/TOLU-em-anthro_CMIP_CEDS_2014.nc
HEMCO: Opening /fsx/HEMCO/CEDS/v2018-08/2014/XYLE-em-anthro_CMIP_CEDS_2014.nc
HEMCO: Opening /fsx/HEMCO/CEDS/v2018-08/2014/CH2O-em-anthro_CMIP_CEDS_2014.nc
HEMCO: Opening /fsx/HEMCO/CEDS/v2018-08/2014/ALD2-em-anthro_CMIP_CEDS_2014.nc
HEMCO: Opening /fsx/HEMCO/CEDS/v2018-08/2014/MEK-em-anthro_CMIP_CEDS_2014.nc
HEMCO: Opening /fsx/HEMCO/CEDS/v2018-08/2014/HCOOH-em-anthro_CMIP_CEDS_2014.nc
HEMCO: Opening /fsx/HEMCO/CEDS/v2018-08/2014/NO-em-anthro_CMIP_CEDS_2014.nc
HEMCO: Opening /fsx/HEMCO/AEIC/v2015-01/AEIC.47L.gen.1x1.nc
HEMCO: Opening /fsx/HEMCO/ALD2/v2017-03/resp.geos.2x25.nc
HEMCO: Opening /fsx/HEMCO/DMS/v2015-07/DMS_lana.geos.1x1.nc
HEMCO: Opening /fsx/HEMCO/ALD2/v2017-03/ALD2_seawater.geos.2x25.nc
HEMCO: Opening /fsx/HEMCO/DUST_DEAD/v2014-07/dst_tvbds.geos.4x5.nc
HEMCO: Opening /fsx/HEMCO/DUST_DEAD/v2018-04/PM25FINE_ECLIPSE_2015.geos.2x25.nc
HEMCO: Opening /fsx/HEMCO/SOA/v2014-07/NVOC.geos.1x1.nc
HEMCO: Opening /fsx/HEMCO/GFED4/v2015-10/2016/GFED4_gen.025x025.201601.nc
HEMCO: Opening /fsx/HEMCO/UVALBEDO/v2015-03/uvalbedo.geos.2x25.nc
HEMCO: Opening /fsx/HEMCO/GMI/v2015-02/gmi.clim.ACET.geos5.2x25.nc
HEMCO: Opening /fsx/HEMCO/GMI/v2015-02/gmi.clim.ACTA.geos5.2x25.nc
HEMCO: Opening /fsx/HEMCO/GMI/v2015-02/gmi.clim.ALD2.geos5.2x25.nc
HEMCO: Opening /fsx/HEMCO/GMI/v2015-02/gmi.clim.ALK4.geos5.2x25.nc
HEMCO: Opening /fsx/HEMCO/GMI/v2015-02/gmi.clim.C2H6.geos5.2x25.nc
HEMCO: Opening /fsx/HEMCO/GMI/v2015-02/gmi.clim.C3H8.geos5.2x25.nc
HEMCO: Opening /fsx/HEMCO/GMI/v2015-02/gmi.clim.CCl4.geos5.2x25.nc
HEMCO: Opening /fsx/HEMCO/GMI/v2015-02/gmi.clim.CF2Cl2.geos5.2x25.nc
HEMCO: Opening /fsx/HEMCO/GMI/v2015-02/gmi.clim.CF2ClBr.geos5.2x25.nc
HEMCO: Opening /fsx/HEMCO/GMI/v2015-02/gmi.clim.CFC113.geos5.2x25.nc
HEMCO: Opening /fsx/HEMCO/GMI/v2015-02/gmi.clim.CFC114.geos5.2x25.nc
HEMCO: Opening /fsx/HEMCO/GMI/v2015-02/gmi.clim.CFC115.geos5.2x25.nc
HEMCO: Opening /fsx/HEMCO/GMI/v2015-02/gmi.clim.CFCl3.geos5.2x25.nc
HEMCO: Opening /fsx/HEMCO/GMI/v2015-02/gmi.clim.CH2O.geos5.2x25.nc
HEMCO: Opening /fsx/HEMCO/GMI/v2015-02/gmi.clim.CH3CCl3.geos5.2x25.nc
HEMCO: Opening /fsx/HEMCO/GMI/v2015-02/gmi.clim.CH3Cl.geos5.2x25.nc
HEMCO: Opening /fsx/HEMCO/GMI/v2015-02/gmi.clim.CH4.geos5.2x25.nc
HEMCO: Opening /fsx/HEMCO/GMI/v2015-02/gmi.clim.CO.geos5.2x25.nc
HEMCO: Opening /fsx/HEMCO/GMI/v2015-02/gmi.clim.Cl.geos5.2x25.nc
HEMCO: Opening /fsx/HEMCO/GMI/v2015-02/gmi.clim.Cl2.geos5.2x25.nc
HEMCO: Opening /fsx/HEMCO/GMI/v2015-02/gmi.clim.Cl2O2.geos5.2x25.nc
HEMCO: Opening /fsx/HEMCO/GMI/v2015-02/gmi.clim.ClO.geos5.2x25.nc
HEMCO: Opening /fsx/HEMCO/GMI/v2015-02/gmi.clim.EOH.geos5.2x25.nc
HEMCO: Opening /fsx/HEMCO/GMI/v2015-02/gmi.clim.GLYC.geos5.2x25.nc
HEMCO: Opening /fsx/HEMCO/GMI/v2015-02/gmi.clim.GLYX.geos5.2x25.nc
HEMCO: Opening /fsx/HEMCO/GMI/v2015-02/gmi.clim.H2402.geos5.2x25.nc
HEMCO: Opening /fsx/HEMCO/GMI/v2015-02/gmi.clim.H2O.geos5.2x25.nc
HEMCO: Opening /fsx/HEMCO/GMI/v2015-02/gmi.clim.H2O2.geos5.2x25.nc
HEMCO: Opening /fsx/HEMCO/GMI/v2015-02/gmi.clim.HAC.geos5.2x25.nc
HEMCO: Opening /fsx/HEMCO/GMI/v2015-02/gmi.clim.HCFC141b.geos5.2x25.nc
HEMCO: Opening /fsx/HEMCO/GMI/v2015-02/gmi.clim.HCFC142b.geos5.2x25.nc
HEMCO: Opening /fsx/HEMCO/GMI/v2015-02/gmi.clim.HCFC22.geos5.2x25.nc
HEMCO: Opening /fsx/HEMCO/GMI/v2015-02/gmi.clim.HCOOH.geos5.2x25.20170108.nc
HEMCO: Opening /fsx/HEMCO/GMI/v2015-02/gmi.clim.HCl.geos5.2x25.nc
HEMCO: Opening /fsx/HEMCO/GMI/v2015-02/gmi.clim.HNO2.geos5.2x25.nc
HEMCO: Opening /fsx/HEMCO/GMI/v2015-02/gmi.clim.HNO3.geos5.2x25.nc
HEMCO: Opening /fsx/HEMCO/GMI/v2015-02/gmi.clim.HNO4.geos5.2x25.nc
HEMCO: Opening /fsx/HEMCO/GMI/v2015-02/gmi.clim.HOCl.geos5.2x25.nc
HEMCO: Opening /fsx/HEMCO/GMI/v2015-02/gmi.clim.ISN1.geos5.2x25.nc
HEMCO: Opening /fsx/HEMCO/GMI/v2015-02/gmi.clim.ISOP.geos5.2x25.nc
HEMCO: Opening /fsx/HEMCO/GMI/v2015-02/gmi.clim.MACR.geos5.2x25.nc
HEMCO: Opening /fsx/HEMCO/GMI/v2015-02/gmi.clim.MAP.geos5.2x25.nc
HEMCO: Opening /fsx/HEMCO/GMI/v2015-02/gmi.clim.MEK.geos5.2x25.nc
HEMCO: Opening /fsx/HEMCO/GMI/v2015-02/gmi.clim.MGLY.geos5.2x25.nc
HEMCO: Opening /fsx/HEMCO/GMI/v2015-02/gmi.clim.MP.geos5.2x25.nc
HEMCO: Opening /fsx/HEMCO/GMI/v2015-02/gmi.clim.MVK.geos5.2x25.nc
HEMCO: Opening /fsx/HEMCO/GMI/v2015-02/gmi.clim.N2O.geos5.2x25.nc
HEMCO: Opening /fsx/HEMCO/GMI/v2015-02/gmi.clim.N2O5.geos5.2x25.nc
HEMCO: Opening /fsx/HEMCO/GMI/v2015-02/gmi.clim.NO.geos5.2x25.nc
HEMCO: Opening /fsx/HEMCO/GMI/v2015-02/gmi.clim.NO2.geos5.2x25.nc
HEMCO: Opening /fsx/HEMCO/GMI/v2015-02/gmi.clim.NO3.geos5.2x25.nc
HEMCO: Opening /fsx/HEMCO/GMI/v2015-02/gmi.clim.O3.geos5.2x25.nc
HEMCO: Opening /fsx/HEMCO/GMI/v2015-02/gmi.clim.OClO.geos5.2x25.nc
HEMCO: Opening /fsx/HEMCO/GMI/v2015-02/gmi.clim.PAN.geos5.2x25.nc
HEMCO: Opening /fsx/HEMCO/GMI/v2015-02/gmi.clim.NPMN.geos5.2x25.nc
HEMCO: Opening /fsx/HEMCO/GMI/v2015-02/gmi.clim.IPMN.geos5.2x25.nc
HEMCO: Opening /fsx/HEMCO/GMI/v2015-02/gmi.clim.PPN.geos5.2x25.nc
HEMCO: Opening /fsx/HEMCO/GMI/v2015-02/gmi.clim.PRPE.geos5.2x25.nc
HEMCO: Opening /fsx/HEMCO/GMI/v2015-02/gmi.clim.R4N2.geos5.2x25.nc
HEMCO: Opening /fsx/HEMCO/GMI/v2015-02/gmi.clim.RCHO.geos5.2x25.nc
HEMCO: Opening /fsx/HEMCO/GMI/v2015-02/gmi.clim.RIPA.geos5.2x25.nc
HEMCO: Opening /fsx/HEMCO/GMI/v2015-02/gmi.clim.RIPB.geos5.2x25.nc
HEMCO: Opening /fsx/HEMCO/GMI/v2015-02/gmi.clim.RIPD.geos5.2x25.nc
HEMCO: Opening /fsx/HEMCO/GMI/v2015-02/gmi.clim.OH.geos5.2x25.nc
HEMCO: Opening /fsx/HEMCO/NOAA_GMD/v2018-01/monthly.gridded.surface.methane.1979-2020.1x1.nc
HEMCO: Opening /fsx/HEMCO/GEIA/v2014-07/GEIA_monthscal.generic.1x1.nc
HEMCO: Opening /fsx/HEMCO/EMEP/v2015-03/EMEP.Seasonal.geos.1x1.nc
HEMCO: Opening /fsx/HEMCO/BROMINE/v2015-02/BromoCarb_Season.nc
HEMCO: Opening /fsx/HEMCO/EDGARv43/v2016-11/EDGAR_v43.Seasonal.1x1.nc
HEMCO: Opening /fsx/HEMCO/NEI2005/v2014-09/scaling/NEI99.dow.geos.1x1.nc
HEMCO: Opening /fsx/HEMCO/VOLCANO/v2015-02/2009/volc_so2_gen.1x1.47L.200901.nc
HEMCO: Opening /fsx/HEMCO/SOILNOX/v2014-07/soilNOx.fert_res.generic.05x05.nc
 vdinti: pbl height will be limited to bottom           25  model levels. top is
     431.250100000000       hpa
 =================================================
 W R F - G C   T I M E R S
    Domain           1 (Units: s)
 =================================================
  => Coupler Component                       0.049
   -- Physics & Parameterization             0.010
   -- Diagnostics Out                        0.000
  => GEOS-Chem Column                      125.380
  ===> Total Chemistry                     125.429
  => WRF                                    17.275
  ===> Total WRF-GC                        142.704
 max optd  4.5185168E+30
 max taucldi  1.0460475E-07
 max taucldw  3.9286510E-06
 Switching is not necessary as we are already
 in the right domain!
 GIGC_Chunk_Run: Running for in-PET grid #           1
 GIGC_Chunk_Run: Received new grid IM, JM, LM =          14           9
          49
 =================================================
 W R F - G C   T I M E R S
    Domain           1 (Units: s)
 =================================================
  => Coupler Component                       0.076
   -- Physics & Parameterization             0.020
   -- Diagnostics Out                        0.000
  => GEOS-Chem Column                      126.627
  ===> Total Chemistry                     126.703
  => WRF                                    65.505
  ===> Total WRF-GC                        192.208
 max optd  4.5185168E+30
 max taucldi  1.9200075E-07
 max taucldw  6.5848731E-06
 Switching is not necessary as we are already
 in the right domain!
 GIGC_Chunk_Run: Running for in-PET grid #           1
 GIGC_Chunk_Run: Received new grid IM, JM, LM =          14           9
          49
 =================================================
 W R F - G C   T I M E R S
    Domain           1 (Units: s)
 =================================================
  => Coupler Component                       0.104
   -- Physics & Parameterization             0.029
   -- Diagnostics Out                        0.000
  => GEOS-Chem Column                      127.753
  ===> Total Chemistry                     127.857
  => WRF                                    86.126
  ===> Total WRF-GC                        213.983
 max optd  4.5185168E+30
 max taucldi  2.6854093E-07
 max taucldw  8.6876216E-06
 Switching is not necessary as we are already
 in the right domain!
 GIGC_Chunk_Run: Running for in-PET grid #           1
 GIGC_Chunk_Run: Received new grid IM, JM, LM =          14           9
          49
 =================================================
 W R F - G C   T I M E R S
    Domain           1 (Units: s)
 =================================================
  => Coupler Component                       0.136
   -- Physics & Parameterization             0.038
   -- Diagnostics Out                        0.000
  => GEOS-Chem Column                      128.780
  ===> Total Chemistry                     128.916
  => WRF                                   105.097
  ===> Total WRF-GC                        234.014
 max optd  4.5185168E+30
 max taucldi  3.3995516E-07
 max taucldw  1.0112263E-05
 Switching is not necessary as we are already
 in the right domain!
 GIGC_Chunk_Run: Running for in-PET grid #           1
 GIGC_Chunk_Run: Received new grid IM, JM, LM =          14           9
          49
 =================================================
 W R F - G C   T I M E R S
    Domain           1 (Units: s)
 =================================================
  => Coupler Component                       0.167
   -- Physics & Parameterization             0.048
   -- Diagnostics Out                        0.000
  => GEOS-Chem Column                      129.754
  ===> Total Chemistry                     129.922
  => WRF                                   123.670
  ===> Total WRF-GC                        253.591
 max optd  4.5185168E+30
 max taucldi  4.1166837E-07
 max taucldw  1.0897287E-05
 Switching is not necessary as we are already
 in the right domain!
 GIGC_Chunk_Run: Running for in-PET grid #           1
 GIGC_Chunk_Run: Received new grid IM, JM, LM =          14           9
          49
 =================================================
 W R F - G C   T I M E R S
    Domain           1 (Units: s)
 =================================================
  => Coupler Component                       0.204
   -- Physics & Parameterization             0.057
   -- Diagnostics Out                        0.000
  => GEOS-Chem Column                      130.715
  ===> Total Chemistry                     130.919
  => WRF                                   142.190
  ===> Total WRF-GC                        273.108
 max optd  4.5185168E+30
 max taucldi  7.5559959E-02
 max taucldw  1.3325983E-05
 Switching is not necessary as we are already
 in the right domain!
 GIGC_Chunk_Run: Running for in-PET grid #           1
 GIGC_Chunk_Run: Received new grid IM, JM, LM =          14           9
          49
 =================================================
 W R F - G C   T I M E R S
    Domain           1 (Units: s)
 =================================================
  => Coupler Component                       0.234
   -- Physics & Parameterization             0.067
   -- Diagnostics Out                        0.000
  => GEOS-Chem Column                      131.681
  ===> Total Chemistry                     131.915
  => WRF                                   160.757
  ===> Total WRF-GC                        292.672
 max optd  4.5185168E+30
 max taucldi  7.5555734E-02
 max taucldw  1.5867385E-05
 Switching is not necessary as we are already
 in the right domain!
 GIGC_Chunk_Run: Running for in-PET grid #           1
 GIGC_Chunk_Run: Received new grid IM, JM, LM =          14           9
          49
 =================================================
 W R F - G C   T I M E R S
    Domain           1 (Units: s)
 =================================================
  => Coupler Component                       0.268
   -- Physics & Parameterization             0.077
   -- Diagnostics Out                        0.000
  => GEOS-Chem Column                      132.629
  ===> Total Chemistry                     132.897
  => WRF                                   179.187
  ===> Total WRF-GC                        312.084
 max optd  4.5185168E+30
 max taucldi  7.3101893E-02
 max taucldw  1.8148752E-05
 Switching is not necessary as we are already
 in the right domain!
 GIGC_Chunk_Run: Running for in-PET grid #           1
 GIGC_Chunk_Run: Received new grid IM, JM, LM =          14           9
          49
 =================================================
 W R F - G C   T I M E R S
    Domain           1 (Units: s)
 =================================================
  => Coupler Component                       0.301
   -- Physics & Parameterization             0.086
   -- Diagnostics Out                        0.000
  => GEOS-Chem Column                      133.601
  ===> Total Chemistry                     133.902
  => WRF                                   197.711
  ===> Total WRF-GC                        331.612
 max optd  4.5185168E+30
 max taucldi  7.5525641E-02
 max taucldw  1.9957210E-05
 Switching is not necessary as we are already
 in the right domain!
 GIGC_Chunk_Run: Running for in-PET grid #           1
 GIGC_Chunk_Run: Received new grid IM, JM, LM =          14           9
          49
 =================================================
 W R F - G C   T I M E R S
    Domain           1 (Units: s)
 =================================================
  => Coupler Component                       0.335
   -- Physics & Parameterization             0.096
   -- Diagnostics Out                        0.000
  => GEOS-Chem Column                      134.564
  ===> Total Chemistry                     134.898
  => WRF                                   216.221
  ===> Total WRF-GC                        351.120
 max optd  4.5185168E+30
 max taucldi  7.4107423E-02
 max taucldw  2.1221707E-05
 Switching is not necessary as we are already
 in the right domain!
 GIGC_Chunk_Run: Running for in-PET grid #           1
 GIGC_Chunk_Run: Received new grid IM, JM, LM =          14           9
          49
 =================================================
 W R F - G C   T I M E R S
    Domain           1 (Units: s)
 =================================================
  => Coupler Component                       0.364
   -- Physics & Parameterization             0.105
   -- Diagnostics Out                        0.000
  => GEOS-Chem Column                      135.517
  ===> Total Chemistry                     135.882
  => WRF                                   234.670
  ===> Total WRF-GC                        370.551
 max optd  4.5185168E+30
 max taucldi  7.2435968E-02
 max taucldw  8.9981973E-02
 Switching is not necessary as we are already
 in the right domain!
 GIGC_Chunk_Run: Running for in-PET grid #           1
 GIGC_Chunk_Run: Received new grid IM, JM, LM =          14           9
          49
 =================================================
 W R F - G C   T I M E R S
    Domain           1 (Units: s)
 =================================================
  => Coupler Component                       0.395
   -- Physics & Parameterization             0.115
   -- Diagnostics Out                        0.000
  => GEOS-Chem Column                      136.471
  ===> Total Chemistry                     136.865
  => WRF                                   253.009
  ===> Total WRF-GC                        389.874
 HOURLY EMISSIONS UPDATE TIME     3600.0       0.0
mediation_integrate: med_read_wrf_chem_emissions: Read emissions for time 2018-01-01_01:00:00
 max optd  4.5185168E+30
 max taucldi  7.1375191E-02
 max taucldw  0.7957441    
 Switching is not necessary as we are already
 in the right domain!
 GIGC_Chunk_Run: Running for in-PET grid #           1
 GIGC_Chunk_Run: Received new grid IM, JM, LM =          14           9
          49
 =================================================
 W R F - G C   T I M E R S
    Domain           1 (Units: s)
 =================================================
  => Coupler Component                       0.423
   -- Physics & Parameterization             0.125
   -- Diagnostics Out                        0.000
  => GEOS-Chem Column                      137.422
  ===> Total Chemistry                     137.845
  => WRF                                   271.451
  ===> Total WRF-GC                        409.296
 max optd  4.5185168E+30
 max taucldi  6.8977773E-02
 max taucldw   2.316500    
 Switching is not necessary as we are already
 in the right domain!
 GIGC_Chunk_Run: Running for in-PET grid #           1
 GIGC_Chunk_Run: Received new grid IM, JM, LM =          14           9
          49
 =================================================
 W R F - G C   T I M E R S
    Domain           1 (Units: s)
 =================================================
  => Coupler Component                       0.456
   -- Physics & Parameterization             0.134
   -- Diagnostics Out                        0.000
  => GEOS-Chem Column                      138.380
  ===> Total Chemistry                     138.836
  => WRF                                   289.868
  ===> Total WRF-GC                        428.704
 max optd  4.5185168E+30
 max taucldi  6.8035774E-02
 max taucldw   3.456904    
 Switching is not necessary as we are already
 in the right domain!
 GIGC_Chunk_Run: Running for in-PET grid #           1
 GIGC_Chunk_Run: Received new grid IM, JM, LM =          14           9
          49
 =================================================
 W R F - G C   T I M E R S
    Domain           1 (Units: s)
 =================================================
  => Coupler Component                       0.489
   -- Physics & Parameterization             0.143
   -- Diagnostics Out                        0.000
  => GEOS-Chem Column                      139.328
  ===> Total Chemistry                     139.817
  => WRF                                   308.149
  ===> Total WRF-GC                        447.966
 max optd  4.5185168E+30
 max taucldi  6.0237806E-02
 max taucldw   4.087210    
 Switching is not necessary as we are already
 in the right domain!
 GIGC_Chunk_Run: Running for in-PET grid #           1
 GIGC_Chunk_Run: Received new grid IM, JM, LM =          14           9
          49
 =================================================
 W R F - G C   T I M E R S
    Domain           1 (Units: s)
 =================================================
  => Coupler Component                       0.521
   -- Physics & Parameterization             0.152
   -- Diagnostics Out                        0.000
  => GEOS-Chem Column                      140.283
  ===> Total Chemistry                     140.805
  => WRF                                   326.545
  ===> Total WRF-GC                        467.349
 max optd  4.5185168E+30
 max taucldi  6.0620610E-02
 max taucldw   4.063081    
 Switching is not necessary as we are already
 in the right domain!
 GIGC_Chunk_Run: Running for in-PET grid #           1
 GIGC_Chunk_Run: Received new grid IM, JM, LM =          14           9
          49
 =================================================
 W R F - G C   T I M E R S
    Domain           1 (Units: s)
 =================================================
  => Coupler Component                       0.558
   -- Physics & Parameterization             0.161
   -- Diagnostics Out                        0.000
  => GEOS-Chem Column                      141.241
  ===> Total Chemistry                     141.799
  => WRF                                   344.877
  ===> Total WRF-GC                        486.676
 max optd  4.5185168E+30
 max taucldi  6.0743596E-02
 max taucldw   4.002629    
 Switching is not necessary as we are already
 in the right domain!
 GIGC_Chunk_Run: Running for in-PET grid #           1
 GIGC_Chunk_Run: Received new grid IM, JM, LM =          14           9
          49
 =================================================
 W R F - G C   T I M E R S
    Domain           1 (Units: s)
 =================================================
  => Coupler Component                       0.588
   -- Physics & Parameterization             0.171
   -- Diagnostics Out                        0.000
  => GEOS-Chem Column                      142.179
  ===> Total Chemistry                     142.768
  => WRF                                   363.145
  ===> Total WRF-GC                        505.913
 max optd  4.5185168E+30
 max taucldi  4.7631703E-02
 max taucldw   3.868089    
 Switching is not necessary as we are already
 in the right domain!
 GIGC_Chunk_Run: Running for in-PET grid #           1
 GIGC_Chunk_Run: Received new grid IM, JM, LM =          14           9
          49
 =================================================
 W R F - G C   T I M E R S
    Domain           1 (Units: s)
 =================================================
  => Coupler Component                       0.623
   -- Physics & Parameterization             0.180
   -- Diagnostics Out                        0.000
  => GEOS-Chem Column                      143.129
  ===> Total Chemistry                     143.752
  => WRF                                   381.522
  ===> Total WRF-GC                        525.274
 max optd  4.5185168E+30
 max taucldi  6.1870180E-02
 max taucldw   3.695576    
 Switching is not necessary as we are already
 in the right domain!
 GIGC_Chunk_Run: Running for in-PET grid #           1
 GIGC_Chunk_Run: Received new grid IM, JM, LM =          14           9
          49
 =================================================
 W R F - G C   T I M E R S
    Domain           1 (Units: s)
 =================================================
  => Coupler Component                       0.651
   -- Physics & Parameterization             0.190
   -- Diagnostics Out                        0.000
  => GEOS-Chem Column                      144.072
  ===> Total Chemistry                     144.723
  => WRF                                   399.997
  ===> Total WRF-GC                        544.720
 max optd  4.5185168E+30
 max taucldi  6.1426654E-02
 max taucldw   3.354524    
 Switching is not necessary as we are already
 in the right domain!
 GIGC_Chunk_Run: Running for in-PET grid #           1
 GIGC_Chunk_Run: Received new grid IM, JM, LM =          14           9
          49
 =================================================
 W R F - G C   T I M E R S
    Domain           1 (Units: s)
 =================================================
  => Coupler Component                       0.684
   -- Physics & Parameterization             0.200
   -- Diagnostics Out                        0.000
  => GEOS-Chem Column                      145.027
  ===> Total Chemistry                     145.710
  => WRF                                   418.215
  ===> Total WRF-GC                        563.925
 max optd  4.5185168E+30
 max taucldi  7.1561188E-02
 max taucldw   3.938456    
 Switching is not necessary as we are already
 in the right domain!
 GIGC_Chunk_Run: Running for in-PET grid #           1
 GIGC_Chunk_Run: Received new grid IM, JM, LM =          14           9
          49
 =================================================
 W R F - G C   T I M E R S
    Domain           1 (Units: s)
 =================================================
  => Coupler Component                       0.713
   -- Physics & Parameterization             0.209
   -- Diagnostics Out                        0.000
  => GEOS-Chem Column                      145.974
  ===> Total Chemistry                     146.687
  => WRF                                   436.477
  ===> Total WRF-GC                        583.164
 max optd  4.5185168E+30
 max taucldi  7.5600639E-02
 max taucldw   4.611251    
 Switching is not necessary as we are already
 in the right domain!
 GIGC_Chunk_Run: Running for in-PET grid #           1
 GIGC_Chunk_Run: Received new grid IM, JM, LM =          14           9
          49
 =================================================
 W R F - G C   T I M E R S
    Domain           1 (Units: s)
 =================================================
  => Coupler Component                       0.740
   -- Physics & Parameterization             0.218
   -- Diagnostics Out                        0.000
  => GEOS-Chem Column                      146.924
  ===> Total Chemistry                     147.664
  => WRF                                   454.901
  ===> Total WRF-GC                        602.565
 max optd  4.5185168E+30
 max taucldi  6.9617242E-02
 max taucldw   5.045861    
 Switching is not necessary as we are already
 in the right domain!
 GIGC_Chunk_Run: Running for in-PET grid #           1
 GIGC_Chunk_Run: Received new grid IM, JM, LM =          14           9
          49
 =================================================
 W R F - G C   T I M E R S
    Domain           1 (Units: s)
 =================================================
  => Coupler Component                       0.770
   -- Physics & Parameterization             0.228
   -- Diagnostics Out                        0.000
  => GEOS-Chem Column                      147.863
  ===> Total Chemistry                     148.633
  => WRF                                   473.178
  ===> Total WRF-GC                        621.812
 HOURLY EMISSIONS UPDATE TIME     7200.0       0.0
mediation_integrate: med_read_wrf_chem_emissions: Read emissions for time 2018-01-01_02:00:00
 max optd  4.5185168E+30
 max taucldi  8.0582134E-02
 max taucldw   5.691465    
 Switching is not necessary as we are already
 in the right domain!
 GIGC_Chunk_Run: Running for in-PET grid #           1
 GIGC_Chunk_Run: Received new grid IM, JM, LM =          14           9
          49
 =================================================
 W R F - G C   T I M E R S
    Domain           1 (Units: s)
 =================================================
  => Coupler Component                       0.809
   -- Physics & Parameterization             0.238
   -- Diagnostics Out                        0.000
  => GEOS-Chem Column                      148.796
  ===> Total Chemistry                     149.605
  => WRF                                   491.479
  ===> Total WRF-GC                        641.084
 max optd  4.5185168E+30
 max taucldi  7.6293282E-02
 max taucldw   6.237541    
 Switching is not necessary as we are already
 in the right domain!
 GIGC_Chunk_Run: Running for in-PET grid #           1
 GIGC_Chunk_Run: Received new grid IM, JM, LM =          14           9
          49
 =================================================
 W R F - G C   T I M E R S
    Domain           1 (Units: s)
 =================================================
  => Coupler Component                       0.841
   -- Physics & Parameterization             0.248
   -- Diagnostics Out                        0.000
  => GEOS-Chem Column                      149.720
  ===> Total Chemistry                     150.561
  => WRF                                   509.831
  ===> Total WRF-GC                        660.391
 max optd  4.5185168E+30
 max taucldi  7.5306050E-02
 max taucldw   6.172426    
 Switching is not necessary as we are already
 in the right domain!
 GIGC_Chunk_Run: Running for in-PET grid #           1
 GIGC_Chunk_Run: Received new grid IM, JM, LM =          14           9
          49
 =================================================
 W R F - G C   T I M E R S
    Domain           1 (Units: s)
 =================================================
  => Coupler Component                       0.870
   -- Physics & Parameterization             0.257
   -- Diagnostics Out                        0.000
  => GEOS-Chem Column                      150.671
  ===> Total Chemistry                     151.541
  => WRF                                   528.103
  ===> Total WRF-GC                        679.644
 max optd  4.5185168E+30
 max taucldi  8.4139392E-02
 max taucldw   5.828032    
 Switching is not necessary as we are already
 in the right domain!
 GIGC_Chunk_Run: Running for in-PET grid #           1
 GIGC_Chunk_Run: Received new grid IM, JM, LM =          14           9
          49
 =================================================
 W R F - G C   T I M E R S
    Domain           1 (Units: s)
 =================================================
  => Coupler Component                       0.899
   -- Physics & Parameterization             0.267
   -- Diagnostics Out                        0.000
  => GEOS-Chem Column                      151.621
  ===> Total Chemistry                     152.521
  => WRF                                   546.314
  ===> Total WRF-GC                        698.835
 max optd  4.5185168E+30
 max taucldi  9.0443879E-02
 max taucldw   5.734235    
 Switching is not necessary as we are already
 in the right domain!
 GIGC_Chunk_Run: Running for in-PET grid #           1
 GIGC_Chunk_Run: Received new grid IM, JM, LM =          14           9
          49
 =================================================
 W R F - G C   T I M E R S
    Domain           1 (Units: s)
 =================================================
  => Coupler Component                       0.927
   -- Physics & Parameterization             0.276
   -- Diagnostics Out                        0.000
  => GEOS-Chem Column                      152.570
  ===> Total Chemistry                     153.497
  => WRF                                   564.574
  ===> Total WRF-GC                        718.070
 max optd  4.5185168E+30
 max taucldi  9.5231593E-02
 max taucldw   5.393796    
 Switching is not necessary as we are already
 in the right domain!
 GIGC_Chunk_Run: Running for in-PET grid #           1
 GIGC_Chunk_Run: Received new grid IM, JM, LM =          14           9
          49
 =================================================
 W R F - G C   T I M E R S
    Domain           1 (Units: s)
 =================================================
  => Coupler Component                       0.954
   -- Physics & Parameterization             0.286
   -- Diagnostics Out                        0.000
  => GEOS-Chem Column                      153.518
  ===> Total Chemistry                     154.472
  => WRF                                   582.813
  ===> Total WRF-GC                        737.285
 max optd  4.5185168E+30
 max taucldi  9.6018523E-02
 max taucldw   5.148258    
 Switching is not necessary as we are already
 in the right domain!
 GIGC_Chunk_Run: Running for in-PET grid #           1
 GIGC_Chunk_Run: Received new grid IM, JM, LM =          14           9
          49
 =================================================
 W R F - G C   T I M E R S
    Domain           1 (Units: s)
 =================================================
  => Coupler Component                       0.986
   -- Physics & Parameterization             0.296
   -- Diagnostics Out                        0.000
  => GEOS-Chem Column                      154.456
  ===> Total Chemistry                     155.441
  => WRF                                   601.052
  ===> Total WRF-GC                        756.493
 max optd  4.5185168E+30
 max taucldi  0.1022018    
 max taucldw   4.875807    
 Switching is not necessary as we are already
 in the right domain!
 GIGC_Chunk_Run: Running for in-PET grid #           1
 GIGC_Chunk_Run: Received new grid IM, JM, LM =          14           9
          49
 =================================================
 W R F - G C   T I M E R S
    Domain           1 (Units: s)
 =================================================
  => Coupler Component                       1.023
   -- Physics & Parameterization             0.305
   -- Diagnostics Out                        0.000
  => GEOS-Chem Column                      155.415
  ===> Total Chemistry                     156.438
  => WRF                                   619.288
  ===> Total WRF-GC                        775.725
 max optd  4.5185168E+30
 max taucldi  0.1086275    
 max taucldw   4.398068    
 Switching is not necessary as we are already
 in the right domain!
 GIGC_Chunk_Run: Running for in-PET grid #           1
 GIGC_Chunk_Run: Received new grid IM, JM, LM =          14           9
          49
 =================================================
 W R F - G C   T I M E R S
    Domain           1 (Units: s)
 =================================================
  => Coupler Component                       1.057
   -- Physics & Parameterization             0.315
   -- Diagnostics Out                        0.000
  => GEOS-Chem Column                      156.332
  ===> Total Chemistry                     157.389
  => WRF                                   637.466
  ===> Total WRF-GC                        794.855
 max optd  4.5185168E+30
 max taucldi  0.1108469    
 max taucldw   4.157660    
 Switching is not necessary as we are already
 in the right domain!
 GIGC_Chunk_Run: Running for in-PET grid #           1
 GIGC_Chunk_Run: Received new grid IM, JM, LM =          14           9
          49
 =================================================
 W R F - G C   T I M E R S
    Domain           1 (Units: s)
 =================================================
  => Coupler Component                       1.097
   -- Physics & Parameterization             0.325
   -- Diagnostics Out                        0.000
  => GEOS-Chem Column                      157.292
  ===> Total Chemistry                     158.388
  => WRF                                   655.762
  ===> Total WRF-GC                        814.151
 max optd  4.5185168E+30
 max taucldi  0.1269292    
 max taucldw   5.280795    
 Switching is not necessary as we are already
 in the right domain!
 GIGC_Chunk_Run: Running for in-PET grid #           1
 GIGC_Chunk_Run: Received new grid IM, JM, LM =          14           9
          49
 =================================================
 W R F - G C   T I M E R S
    Domain           1 (Units: s)
 =================================================
  => Coupler Component                       1.124
   -- Physics & Parameterization             0.334
   -- Diagnostics Out                        0.000
  => GEOS-Chem Column                      158.242
  ===> Total Chemistry                     159.366
  => WRF                                   673.917
  ===> Total WRF-GC                        833.284
 max optd  4.5185168E+30
 max taucldi  0.1457567    
 max taucldw   6.587366    
 Switching is not necessary as we are already
 in the right domain!
 GIGC_Chunk_Run: Running for in-PET grid #           1
 GIGC_Chunk_Run: Received new grid IM, JM, LM =          14           9
          49
 =================================================
 W R F - G C   T I M E R S
    Domain           1 (Units: s)
 =================================================
  => Coupler Component                       1.153
   -- Physics & Parameterization             0.344
   -- Diagnostics Out                        0.000
  => GEOS-Chem Column                      159.200
  ===> Total Chemistry                     160.353
  => WRF                                   692.106
  ===> Total WRF-GC                        852.459
 HOURLY EMISSIONS UPDATE TIME    10800.0       0.0
mediation_integrate: med_read_wrf_chem_emissions: Read emissions for time 2018-01-01_03:00:00
 max optd  4.5185168E+30
 max taucldi  0.1740597    
 max taucldw   7.931028    
 Switching is not necessary as we are already
 in the right domain!
 GIGC_Chunk_Run: Running for in-PET grid #           1
 GIGC_Chunk_Run: Received new grid IM, JM, LM =          14           9
          49
 =================================================
 W R F - G C   T I M E R S
    Domain           1 (Units: s)
 =================================================
  => Coupler Component                       1.183
   -- Physics & Parameterization             0.353
   -- Diagnostics Out                        0.000
  => GEOS-Chem Column                      160.148
  ===> Total Chemistry                     161.331
  => WRF                                   710.337
  ===> Total WRF-GC                        871.667
 max optd  4.5185168E+30
 max taucldi  0.1816433    
 max taucldw   8.934809    
 Switching is not necessary as we are already
 in the right domain!
 GIGC_Chunk_Run: Running for in-PET grid #           1
 GIGC_Chunk_Run: Received new grid IM, JM, LM =          14           9
          49
 =================================================
 W R F - G C   T I M E R S
    Domain           1 (Units: s)
 =================================================
  => Coupler Component                       1.210
   -- Physics & Parameterization             0.363
   -- Diagnostics Out                        0.000
  => GEOS-Chem Column                      161.093
  ===> Total Chemistry                     162.304
  => WRF                                   728.530
  ===> Total WRF-GC                        890.834
 max optd  4.5185168E+30
 max taucldi  0.1942273    
 max taucldw   9.596029    
 Switching is not necessary as we are already
 in the right domain!
 GIGC_Chunk_Run: Running for in-PET grid #           1
 GIGC_Chunk_Run: Received new grid IM, JM, LM =          14           9
          49
 =================================================
 W R F - G C   T I M E R S
    Domain           1 (Units: s)
 =================================================
  => Coupler Component                       1.248
   -- Physics & Parameterization             0.373
   -- Diagnostics Out                        0.000
  => GEOS-Chem Column                      162.050
  ===> Total Chemistry                     163.298
  => WRF                                   746.764
  ===> Total WRF-GC                        910.062
 max optd  4.5185168E+30
 max taucldi  0.1958493    
 max taucldw   10.04644    
 Switching is not necessary as we are already
 in the right domain!
 GIGC_Chunk_Run: Running for in-PET grid #           1
 GIGC_Chunk_Run: Received new grid IM, JM, LM =          14           9
          49
 =================================================
 W R F - G C   T I M E R S
    Domain           1 (Units: s)
 =================================================
  => Coupler Component                       1.279
   -- Physics & Parameterization             0.382
   -- Diagnostics Out                        0.000
  => GEOS-Chem Column                      163.001
  ===> Total Chemistry                     164.279
  => WRF                                   764.941
  ===> Total WRF-GC                        929.221
 max optd  4.5185168E+30
 max taucldi  0.1949161    
 max taucldw   11.13881    
 Switching is not necessary as we are already
 in the right domain!
 GIGC_Chunk_Run: Running for in-PET grid #           1
 GIGC_Chunk_Run: Received new grid IM, JM, LM =          14           9
          49
 =================================================
 W R F - G C   T I M E R S
    Domain           1 (Units: s)
 =================================================
  => Coupler Component                       1.308
   -- Physics & Parameterization             0.391
   -- Diagnostics Out                        0.000
  => GEOS-Chem Column                      163.950
  ===> Total Chemistry                     165.258
  => WRF                                   783.116
  ===> Total WRF-GC                        948.374
 max optd  4.5185168E+30
 max taucldi  0.2029278    
 max taucldw   11.78794    
 Switching is not necessary as we are already
 in the right domain!
 GIGC_Chunk_Run: Running for in-PET grid #           1
 GIGC_Chunk_Run: Received new grid IM, JM, LM =          14           9
          49
 =================================================
 W R F - G C   T I M E R S
    Domain           1 (Units: s)
 =================================================
  => Coupler Component                       1.336
   -- Physics & Parameterization             0.400
   -- Diagnostics Out                        0.000
  => GEOS-Chem Column                      164.898
  ===> Total Chemistry                     166.233
  => WRF                                   801.568
  ===> Total WRF-GC                        967.802
 max optd  4.5185168E+30
 max taucldi  0.2557961    
 max taucldw   12.56689    
 Switching is not necessary as we are already
 in the right domain!
 GIGC_Chunk_Run: Running for in-PET grid #           1
 GIGC_Chunk_Run: Received new grid IM, JM, LM =          14           9
          49
 =================================================
 W R F - G C   T I M E R S
    Domain           1 (Units: s)
 =================================================
  => Coupler Component                       1.368
   -- Physics & Parameterization             0.410
   -- Diagnostics Out                        0.000
  => GEOS-Chem Column                      165.830
  ===> Total Chemistry                     167.198
  => WRF                                   819.841
  ===> Total WRF-GC                        987.038
 max optd  4.5185168E+30
 max taucldi  0.2827815    
 max taucldw   13.15220    
 Switching is not necessary as we are already
 in the right domain!
 GIGC_Chunk_Run: Running for in-PET grid #           1
 GIGC_Chunk_Run: Received new grid IM, JM, LM =          14           9
          49
 =================================================
 W R F - G C   T I M E R S
    Domain           1 (Units: s)
 =================================================
  => Coupler Component                       1.405
   -- Physics & Parameterization             0.419
   -- Diagnostics Out                        0.000
  => GEOS-Chem Column                      166.785
  ===> Total Chemistry                     168.190
  => WRF                                   838.034
  ===> Total WRF-GC                       1006.224
 max optd  4.5185168E+30
 max taucldi  0.2940544    
 max taucldw   13.38210    
 Switching is not necessary as we are already
 in the right domain!
 GIGC_Chunk_Run: Running for in-PET grid #           1
 GIGC_Chunk_Run: Received new grid IM, JM, LM =          14           9
          49
 =================================================
 W R F - G C   T I M E R S
    Domain           1 (Units: s)
 =================================================
  => Coupler Component                       1.441
   -- Physics & Parameterization             0.429
   -- Diagnostics Out                        0.000
  => GEOS-Chem Column                      167.715
  ===> Total Chemistry                     169.156
  => WRF                                   856.316
  ===> Total WRF-GC                       1025.472
 max optd  4.5185168E+30
 max taucldi  0.2966188    
 max taucldw   13.73723    
 Switching is not necessary as we are already
 in the right domain!
 GIGC_Chunk_Run: Running for in-PET grid #           1
 GIGC_Chunk_Run: Received new grid IM, JM, LM =          14           9
          49
 =================================================
 W R F - G C   T I M E R S
    Domain           1 (Units: s)
 =================================================
  => Coupler Component                       1.480
   -- Physics & Parameterization             0.438
   -- Diagnostics Out                        0.000
  => GEOS-Chem Column                      168.665
  ===> Total Chemistry                     170.145
  => WRF                                   874.598
  ===> Total WRF-GC                       1044.743
 max optd  4.5185168E+30
 max taucldi  0.3046571    
 max taucldw   14.37322    
 Switching is not necessary as we are already
 in the right domain!
 GIGC_Chunk_Run: Running for in-PET grid #           1
 GIGC_Chunk_Run: Received new grid IM, JM, LM =          14           9
          49
 =================================================
 W R F - G C   T I M E R S
    Domain           1 (Units: s)
 =================================================
  => Coupler Component                       1.518
   -- Physics & Parameterization             0.448
   -- Diagnostics Out                        0.000
  => GEOS-Chem Column                      169.604
  ===> Total Chemistry                     171.122
  => WRF                                   892.774
  ===> Total WRF-GC                       1063.896
 max optd  4.5185168E+30
 max taucldi  0.3161355    
 max taucldw   14.75714    
 Switching is not necessary as we are already
 in the right domain!
 GIGC_Chunk_Run: Running for in-PET grid #           1
 GIGC_Chunk_Run: Received new grid IM, JM, LM =          14           9
          49
 =================================================
 W R F - G C   T I M E R S
    Domain           1 (Units: s)
 =================================================
  => Coupler Component                       1.546
   -- Physics & Parameterization             0.457
   -- Diagnostics Out                        0.000
  => GEOS-Chem Column                      170.552
  ===> Total Chemistry                     172.098
  => WRF                                   911.044
  ===> Total WRF-GC                       1083.142
 HOURLY EMISSIONS UPDATE TIME    14400.0       0.0
mediation_integrate: med_read_wrf_chem_emissions: Read emissions for time 2018-01-01_04:00:00
 max optd  4.5185168E+30
 max taucldi  0.3279483    
 max taucldw   15.87907    
 Switching is not necessary as we are already
 in the right domain!
 GIGC_Chunk_Run: Running for in-PET grid #           1
 GIGC_Chunk_Run: Received new grid IM, JM, LM =          14           9
          49
 =================================================
 W R F - G C   T I M E R S
    Domain           1 (Units: s)
 =================================================
  => Coupler Component                       1.581
   -- Physics & Parameterization             0.467
   -- Diagnostics Out                        0.000
  => GEOS-Chem Column                      171.515
  ===> Total Chemistry                     173.096
  => WRF                                   929.311
  ===> Total WRF-GC                       1102.406
 max optd  4.5185168E+30
 max taucldi  0.3420763    
 max taucldw   17.57427    
 Switching is not necessary as we are already
 in the right domain!
 GIGC_Chunk_Run: Running for in-PET grid #           1
 GIGC_Chunk_Run: Received new grid IM, JM, LM =          14           9
          49
 =================================================
 W R F - G C   T I M E R S
    Domain           1 (Units: s)
 =================================================
  => Coupler Component                       1.615
   -- Physics & Parameterization             0.476
   -- Diagnostics Out                        0.000
  => GEOS-Chem Column                      172.475
  ===> Total Chemistry                     174.091
  => WRF                                   947.537
  ===> Total WRF-GC                       1121.627
 max optd  4.5185168E+30
 max taucldi  0.3540575    
 max taucldw   19.05079    
 Switching is not necessary as we are already
 in the right domain!
 GIGC_Chunk_Run: Running for in-PET grid #           1
 GIGC_Chunk_Run: Received new grid IM, JM, LM =          14           9
          49
 =================================================
 W R F - G C   T I M E R S
    Domain           1 (Units: s)
 =================================================
  => Coupler Component                       1.651
   -- Physics & Parameterization             0.486
   -- Diagnostics Out                        0.000
  => GEOS-Chem Column                      173.405
  ===> Total Chemistry                     175.056
  => WRF                                   965.823
  ===> Total WRF-GC                       1140.879
 max optd  4.5185168E+30
 max taucldi  0.3541718    
 max taucldw   20.66192    
 Switching is not necessary as we are already
 in the right domain!
 GIGC_Chunk_Run: Running for in-PET grid #           1
 GIGC_Chunk_Run: Received new grid IM, JM, LM =          14           9
          49
 =================================================
 W R F - G C   T I M E R S
    Domain           1 (Units: s)
 =================================================
  => Coupler Component                       1.689
   -- Physics & Parameterization             0.494
   -- Diagnostics Out                        0.000
  => GEOS-Chem Column                      174.368
  ===> Total Chemistry                     176.057
  => WRF                                   984.109
  ===> Total WRF-GC                       1160.166
 max optd  4.5185168E+30
 max taucldi  0.3490659    
 max taucldw   21.78247    
 Switching is not necessary as we are already
 in the right domain!
 GIGC_Chunk_Run: Running for in-PET grid #           1
 GIGC_Chunk_Run: Received new grid IM, JM, LM =          14           9
          49
 =================================================
 W R F - G C   T I M E R S
    Domain           1 (Units: s)
 =================================================
  => Coupler Component                       1.720
   -- Physics & Parameterization             0.503
   -- Diagnostics Out                        0.000
  => GEOS-Chem Column                      175.304
  ===> Total Chemistry                     177.024
  => WRF                                  1002.322
  ===> Total WRF-GC                       1179.346
 max optd  4.5185168E+30
 max taucldi  0.3388530    
 max taucldw   22.67080    
 Switching is not necessary as we are already
 in the right domain!
 GIGC_Chunk_Run: Running for in-PET grid #           1
 GIGC_Chunk_Run: Received new grid IM, JM, LM =          14           9
          49
 =================================================
 W R F - G C   T I M E R S
    Domain           1 (Units: s)
 =================================================
  => Coupler Component                       1.749
   -- Physics & Parameterization             0.512
   -- Diagnostics Out                        0.000
  => GEOS-Chem Column                      176.248
  ===> Total Chemistry                     177.997
  => WRF                                  1020.603
  ===> Total WRF-GC                       1198.600
 max optd  4.5185168E+30
 max taucldi  0.3240250    
 max taucldw   23.20275    
 Switching is not necessary as we are already
 in the right domain!
 GIGC_Chunk_Run: Running for in-PET grid #           1
 GIGC_Chunk_Run: Received new grid IM, JM, LM =          14           9
          49
 =================================================
 W R F - G C   T I M E R S
    Domain           1 (Units: s)
 =================================================
  => Coupler Component                       1.787
   -- Physics & Parameterization             0.522
   -- Diagnostics Out                        0.000
  => GEOS-Chem Column                      177.175
  ===> Total Chemistry                     178.962
  => WRF                                  1038.888
  ===> Total WRF-GC                       1217.850
 max optd  4.5185168E+30
 max taucldi  0.2988034    
 max taucldw   23.32072    
 Switching is not necessary as we are already
 in the right domain!
 GIGC_Chunk_Run: Running for in-PET grid #           1
 GIGC_Chunk_Run: Received new grid IM, JM, LM =          14           9
          49
 =================================================
 W R F - G C   T I M E R S
    Domain           1 (Units: s)
 =================================================
  => Coupler Component                       1.818
   -- Physics & Parameterization             0.531
   -- Diagnostics Out                        0.000
  => GEOS-Chem Column                      178.128
  ===> Total Chemistry                     179.946
  => WRF                                  1057.155
  ===> Total WRF-GC                       1237.100
 max optd  4.5185168E+30
 max taucldi  0.2708884    
 max taucldw   23.62169    
 Switching is not necessary as we are already
 in the right domain!
 GIGC_Chunk_Run: Running for in-PET grid #           1
 GIGC_Chunk_Run: Received new grid IM, JM, LM =          14           9
          49
 =================================================
 W R F - G C   T I M E R S
    Domain           1 (Units: s)
 =================================================
  => Coupler Component                       1.852
   -- Physics & Parameterization             0.540
   -- Diagnostics Out                        0.000
  => GEOS-Chem Column                      179.082
  ===> Total Chemistry                     180.934
  => WRF                                  1075.403
  ===> Total WRF-GC                       1256.336
 max optd  4.5185168E+30
 max taucldi  0.2476941    
 max taucldw   24.02365    
 Switching is not necessary as we are already
 in the right domain!
 GIGC_Chunk_Run: Running for in-PET grid #           1
 GIGC_Chunk_Run: Received new grid IM, JM, LM =          14           9
          49
 =================================================
 W R F - G C   T I M E R S
    Domain           1 (Units: s)
 =================================================
  => Coupler Component                       1.892
   -- Physics & Parameterization             0.549
   -- Diagnostics Out                        0.000
  => GEOS-Chem Column                      180.048
  ===> Total Chemistry                     181.940
  => WRF                                  1093.642
  ===> Total WRF-GC                       1275.581
 max optd  4.5185168E+30
 max taucldi  0.2308516    
 max taucldw   24.69389    
 Switching is not necessary as we are already
 in the right domain!
 GIGC_Chunk_Run: Running for in-PET grid #           1
 GIGC_Chunk_Run: Received new grid IM, JM, LM =          14           9
          49
 =================================================
 W R F - G C   T I M E R S
    Domain           1 (Units: s)
 =================================================
  => Coupler Component                       1.932
   -- Physics & Parameterization             0.558
   -- Diagnostics Out                        0.000
  => GEOS-Chem Column                      181.016
  ===> Total Chemistry                     182.948
  => WRF                                  1111.809
  ===> Total WRF-GC                       1294.757
 max optd  4.5185168E+30
 max taucldi  0.2123489    
 max taucldw   24.81911    
 Switching is not necessary as we are already
 in the right domain!
 GIGC_Chunk_Run: Running for in-PET grid #           1
 GIGC_Chunk_Run: Received new grid IM, JM, LM =          14           9
          49
 =================================================
 W R F - G C   T I M E R S
    Domain           1 (Units: s)
 =================================================
  => Coupler Component                       1.966
   -- Physics & Parameterization             0.567
   -- Diagnostics Out                        0.000
  => GEOS-Chem Column                      181.971
  ===> Total Chemistry                     183.937
  => WRF                                  1129.953
  ===> Total WRF-GC                       1313.890
 HOURLY EMISSIONS UPDATE TIME    18000.0       0.0
mediation_integrate: med_read_wrf_chem_emissions: Read emissions for time 2018-01-01_05:00:00
 max optd  4.5185168E+30
 max taucldi  0.1926773    
 max taucldw   24.69312    
 Switching is not necessary as we are already
 in the right domain!
 GIGC_Chunk_Run: Running for in-PET grid #           1
 GIGC_Chunk_Run: Received new grid IM, JM, LM =          14           9
          49
 =================================================
 W R F - G C   T I M E R S
    Domain           1 (Units: s)
 =================================================
  => Coupler Component                       2.003
   -- Physics & Parameterization             0.576
   -- Diagnostics Out                        0.000
  => GEOS-Chem Column                      182.930
  ===> Total Chemistry                     184.932
  => WRF                                  1148.218
  ===> Total WRF-GC                       1333.151
 max optd  4.5185168E+30
 max taucldi  0.1734947    
 max taucldw   24.30753    
 Switching is not necessary as we are already
 in the right domain!
 GIGC_Chunk_Run: Running for in-PET grid #           1
 GIGC_Chunk_Run: Received new grid IM, JM, LM =          14           9
          49
 =================================================
 W R F - G C   T I M E R S
    Domain           1 (Units: s)
 =================================================
  => Coupler Component                       2.032
   -- Physics & Parameterization             0.584
   -- Diagnostics Out                        0.000
  => GEOS-Chem Column                      183.883
  ===> Total Chemistry                     185.914
  => WRF                                  1166.426
  ===> Total WRF-GC                       1352.341
 max optd  4.5185168E+30
 max taucldi  0.1440766    
 max taucldw   23.95314    
 Switching is not necessary as we are already
 in the right domain!
 GIGC_Chunk_Run: Running for in-PET grid #           1
 GIGC_Chunk_Run: Received new grid IM, JM, LM =          14           9
          49
 =================================================
 W R F - G C   T I M E R S
    Domain           1 (Units: s)
 =================================================
  => Coupler Component                       2.064
   -- Physics & Parameterization             0.593
   -- Diagnostics Out                        0.000
  => GEOS-Chem Column                      184.838
  ===> Total Chemistry                     186.902
  => WRF                                  1184.628
  ===> Total WRF-GC                       1371.530
 max optd  4.5185168E+30
 max taucldi  0.1234276    
 max taucldw   23.70147    
 Switching is not necessary as we are already
 in the right domain!
 GIGC_Chunk_Run: Running for in-PET grid #           1
 GIGC_Chunk_Run: Received new grid IM, JM, LM =          14           9
          49
 =================================================
 W R F - G C   T I M E R S
    Domain           1 (Units: s)
 =================================================
  => Coupler Component                       2.096
   -- Physics & Parameterization             0.603
   -- Diagnostics Out                        0.000
  => GEOS-Chem Column                      185.780
  ===> Total Chemistry                     187.876
  => WRF                                  1202.857
  ===> Total WRF-GC                       1390.733
 max optd  4.5185168E+30
 max taucldi  0.1182167    
 max taucldw   23.72280    
 Switching is not necessary as we are already
 in the right domain!
 GIGC_Chunk_Run: Running for in-PET grid #           1
 GIGC_Chunk_Run: Received new grid IM, JM, LM =          14           9
          49
 =================================================
 W R F - G C   T I M E R S
    Domain           1 (Units: s)
 =================================================
  => Coupler Component                       2.135
   -- Physics & Parameterization             0.612
   -- Diagnostics Out                        0.000
  => GEOS-Chem Column                      186.745
  ===> Total Chemistry                     188.880
  => WRF                                  1221.168
  ===> Total WRF-GC                       1410.049
 max optd  4.5185168E+30
 max taucldi  0.1134811    
 max taucldw   23.98376    
 Switching is not necessary as we are already
 in the right domain!
 GIGC_Chunk_Run: Running for in-PET grid #           1
 GIGC_Chunk_Run: Received new grid IM, JM, LM =          14           9
          49
 =================================================
 W R F - G C   T I M E R S
    Domain           1 (Units: s)
 =================================================
  => Coupler Component                       2.166
   -- Physics & Parameterization             0.621
   -- Diagnostics Out                        0.000
  => GEOS-Chem Column                      187.683
  ===> Total Chemistry                     189.849
  => WRF                                  1239.335
  ===> Total WRF-GC                       1429.183
 max optd  4.5185168E+30
 max taucldi  0.1089912    
 max taucldw   24.00270    
 Switching is not necessary as we are already
 in the right domain!
 GIGC_Chunk_Run: Running for in-PET grid #           1
 GIGC_Chunk_Run: Received new grid IM, JM, LM =          14           9
          49
 =================================================
 W R F - G C   T I M E R S
    Domain           1 (Units: s)
 =================================================
  => Coupler Component                       2.195
   -- Physics & Parameterization             0.630
   -- Diagnostics Out                        0.000
  => GEOS-Chem Column                      188.632
  ===> Total Chemistry                     190.827
  => WRF                                  1257.653
  ===> Total WRF-GC                       1448.480
 max optd  4.5185168E+30
 max taucldi  0.1054354    
 max taucldw   24.02419    
 Switching is not necessary as we are already
 in the right domain!
 GIGC_Chunk_Run: Running for in-PET grid #           1
 GIGC_Chunk_Run: Received new grid IM, JM, LM =          14           9
          49
 =================================================
 W R F - G C   T I M E R S
    Domain           1 (Units: s)
 =================================================
  => Coupler Component                       2.234
   -- Physics & Parameterization             0.639
   -- Diagnostics Out                        0.000
  => GEOS-Chem Column                      189.600
  ===> Total Chemistry                     191.834
  => WRF                                  1275.884
  ===> Total WRF-GC                       1467.718
 max optd  4.5185168E+30
 max taucldi  0.1006994    
 max taucldw   23.92767    
 Switching is not necessary as we are already
 in the right domain!
 GIGC_Chunk_Run: Running for in-PET grid #           1
 GIGC_Chunk_Run: Received new grid IM, JM, LM =          14           9
          49
 =================================================
 W R F - G C   T I M E R S
    Domain           1 (Units: s)
 =================================================
  => Coupler Component                       2.263
   -- Physics & Parameterization             0.649
   -- Diagnostics Out                        0.000
  => GEOS-Chem Column                      190.545
  ===> Total Chemistry                     192.808
  => WRF                                  1294.130
  ===> Total WRF-GC                       1486.938
 max optd  4.5185168E+30
 max taucldi  9.3287282E-02
 max taucldw   23.99983    
 Switching is not necessary as we are already
 in the right domain!
 GIGC_Chunk_Run: Running for in-PET grid #           1
 GIGC_Chunk_Run: Received new grid IM, JM, LM =          14           9
          49
 =================================================
 W R F - G C   T I M E R S
    Domain           1 (Units: s)
 =================================================
  => Coupler Component                       2.296
   -- Physics & Parameterization             0.658
   -- Diagnostics Out                        0.000
  => GEOS-Chem Column                      191.480
  ===> Total Chemistry                     193.776
  => WRF                                  1312.638
  ===> Total WRF-GC                       1506.414
 max optd  4.5185168E+30
 max taucldi  8.4858909E-02
 max taucldw   24.29185    
 Switching is not necessary as we are already
 in the right domain!
 GIGC_Chunk_Run: Running for in-PET grid #           1
 GIGC_Chunk_Run: Received new grid IM, JM, LM =          14           9
          49
 =================================================
 W R F - G C   T I M E R S
    Domain           1 (Units: s)
 =================================================
  => Coupler Component                       2.334
   -- Physics & Parameterization             0.667
   -- Diagnostics Out                        0.000
  => GEOS-Chem Column                      192.445
  ===> Total Chemistry                     194.779
  => WRF                                  1330.911
  ===> Total WRF-GC                       1525.690
 max optd  4.5185168E+30
 max taucldi  8.2449362E-02
 max taucldw   24.74086    
 Switching is not necessary as we are already
 in the right domain!
 GIGC_Chunk_Run: Running for in-PET grid #           1
 GIGC_Chunk_Run: Received new grid IM, JM, LM =          14           9
          49
 =================================================
 W R F - G C   T I M E R S
    Domain           1 (Units: s)
 =================================================
  => Coupler Component                       2.374
   -- Physics & Parameterization             0.676
   -- Diagnostics Out                        0.000
  => GEOS-Chem Column                      193.402
  ===> Total Chemistry                     195.776
  => WRF                                  1349.128
  ===> Total WRF-GC                       1544.904
 HOURLY EMISSIONS UPDATE TIME    21600.0       0.0
mediation_integrate: med_read_wrf_chem_emissions: Read emissions for time 2018-01-01_06:00:00
 max optd  4.5185168E+30
 max taucldi  8.5715063E-02
 max taucldw   25.11767    
 Switching is not necessary as we are already
 in the right domain!
 GIGC_Chunk_Run: Running for in-PET grid #           1
 GIGC_Chunk_Run: Received new grid IM, JM, LM =          14           9
          49
 =================================================
 W R F - G C   T I M E R S
    Domain           1 (Units: s)
 =================================================
  => Coupler Component                       2.413
   -- Physics & Parameterization             0.685
   -- Diagnostics Out                        0.000
  => GEOS-Chem Column                      194.363
  ===> Total Chemistry                     196.776
  => WRF                                  1807.895
  ===> Total WRF-GC                       2004.671
 max optd  4.5185168E+30
 max taucldi  8.4732853E-02
 max taucldw   25.48027    
 Switching is not necessary as we are already
 in the right domain!
 GIGC_Chunk_Run: Running for in-PET grid #           1
 GIGC_Chunk_Run: Received new grid IM, JM, LM =          14           9
          49
 =================================================
 W R F - G C   T I M E R S
    Domain           1 (Units: s)
 =================================================
  => Coupler Component                       2.445
   -- Physics & Parameterization             0.694
   -- Diagnostics Out                        0.000
  => GEOS-Chem Column                      195.299
  ===> Total Chemistry                     197.744
  => WRF                                  1826.110
  ===> Total WRF-GC                       2023.854
 max optd  4.5185168E+30
 max taucldi  8.3517395E-02
 max taucldw   26.33357    
 Switching is not necessary as we are already
 in the right domain!
 GIGC_Chunk_Run: Running for in-PET grid #           1
 GIGC_Chunk_Run: Received new grid IM, JM, LM =          14           9
          49
 =================================================
 W R F - G C   T I M E R S
    Domain           1 (Units: s)
 =================================================
  => Coupler Component                       2.479
   -- Physics & Parameterization             0.704
   -- Diagnostics Out                        0.000
  => GEOS-Chem Column                      196.225
  ===> Total Chemistry                     198.704
  => WRF                                  1844.491
  ===> Total WRF-GC                       2043.195
 max optd  4.5185168E+30
 max taucldi  8.1902169E-02
 max taucldw   26.98445    
 Switching is not necessary as we are already
 in the right domain!
 GIGC_Chunk_Run: Running for in-PET grid #           1
 GIGC_Chunk_Run: Received new grid IM, JM, LM =          14           9
          49
 =================================================
 W R F - G C   T I M E R S
    Domain           1 (Units: s)
 =================================================
  => Coupler Component                       2.514
[...]
  => GEOS-Chem Column                      239.495
  ===> Total Chemistry                     243.507
  => WRF                                  2667.015
  ===> Total WRF-GC                       2910.522
 HOURLY EMISSIONS UPDATE TIME    36000.0       0.0
mediation_integrate: med_read_wrf_chem_emissions: Read emissions for time 2018-01-01_10:00:00
 max optd  4.5185168E+30
 max taucldi  1.3611901E-02
 max taucldw   20.98471    
 Switching is not necessary as we are already
 in the right domain!
 GIGC_Chunk_Run: Running for in-PET grid #           1
 GIGC_Chunk_Run: Received new grid IM, JM, LM =          14           9
          49
 =================================================
 W R F - G C   T I M E R S
    Domain           1 (Units: s)
 =================================================
  => Coupler Component                       4.043
   -- Physics & Parameterization             1.113
   -- Diagnostics Out                        0.000
  => GEOS-Chem Column                      240.439
  ===> Total Chemistry                     244.482
  => WRF                                  2685.325
  ===> Total WRF-GC                       2929.807
 max optd  4.5185168E+30
 max taucldi  1.3485052E-02
 max taucldw   21.52655    
 Switching is not necessary as we are already
 in the right domain!
 GIGC_Chunk_Run: Running for in-PET grid #           1
 GIGC_Chunk_Run: Received new grid IM, JM, LM =          14           9
          49
 =================================================
 W R F - G C   T I M E R S
    Domain           1 (Units: s)
 =================================================
  => Coupler Component                       4.073
   -- Physics & Parameterization             1.122
   -- Diagnostics Out                        0.000
  => GEOS-Chem Column                      241.422
  ===> Total Chemistry                     245.495
  => WRF                                  2703.614
  ===> Total WRF-GC                       2949.110
 max optd  4.5185168E+30
 max taucldi  1.3271772E-02
 max taucldw   21.59979    
 Switching is not necessary as we are already
 in the right domain!
 GIGC_Chunk_Run: Running for in-PET grid #           1
 GIGC_Chunk_Run: Received new grid IM, JM, LM =          14           9
          49
 =================================================
 W R F - G C   T I M E R S
    Domain           1 (Units: s)
 =================================================
  => Coupler Component                       4.113
   -- Physics & Parameterization             1.131
   -- Diagnostics Out                        0.000
  => GEOS-Chem Column                      242.392
  ===> Total Chemistry                     246.505
  => WRF                                  2721.834
  ===> Total WRF-GC                       2968.339
 max optd  4.5185168E+30
 max taucldi  1.3204940E-02
 max taucldw   21.22936    
 Switching is not necessary as we are already
 in the right domain!
 GIGC_Chunk_Run: Running for in-PET grid #           1
 GIGC_Chunk_Run: Received new grid IM, JM, LM =          14           9
          49
 =================================================
 W R F - G C   T I M E R S
    Domain           1 (Units: s)
 =================================================
  => Coupler Component                       4.144
   -- Physics & Parameterization             1.139
   -- Diagnostics Out                        0.000
  => GEOS-Chem Column                      243.358
  ===> Total Chemistry                     247.502
  => WRF                                  2740.157
  ===> Total WRF-GC                       2987.659
 max optd  4.5185168E+30
 max taucldi  1.3081005E-02
 max taucldw   20.84306    
 Switching is not necessary as we are already
 in the right domain!
 GIGC_Chunk_Run: Running for in-PET grid #           1
 GIGC_Chunk_Run: Received new grid IM, JM, LM =          14           9
          49
 =================================================
 W R F - G C   T I M E R S
    Domain           1 (Units: s)
 =================================================
  => Coupler Component                       4.178
   -- Physics & Parameterization             1.148
   -- Diagnostics Out                        0.000
  => GEOS-Chem Column                      244.336
  ===> Total Chemistry                     248.515
  => WRF                                  2758.439
  ===> Total WRF-GC                       3006.954
 max optd  4.5185168E+30
 max taucldi  1.2635827E-02
 max taucldw   20.73393    
 Switching is not necessary as we are already
 in the right domain!
 GIGC_Chunk_Run: Running for in-PET grid #           1
 GIGC_Chunk_Run: Received new grid IM, JM, LM =          14           9
          49
 =================================================
 W R F - G C   T I M E R S
    Domain           1 (Units: s)
 =================================================
  => Coupler Component                       4.213
   -- Physics & Parameterization             1.157
   -- Diagnostics Out                        0.000
  => GEOS-Chem Column                      245.290
  ===> Total Chemistry                     249.503
  => WRF                                  2776.590
  ===> Total WRF-GC                       3026.093
 max optd  4.5185168E+30
 max taucldi  1.2851068E-02
 max taucldw   20.56294    
 Switching is not necessary as we are already
 in the right domain!
 GIGC_Chunk_Run: Running for in-PET grid #           1
 GIGC_Chunk_Run: Received new grid IM, JM, LM =          14           9
          49
 =================================================
 W R F - G C   T I M E R S
    Domain           1 (Units: s)
 =================================================
  => Coupler Component                       4.250
   -- Physics & Parameterization             1.166
   -- Diagnostics Out                        0.000
  => GEOS-Chem Column                      246.264
  ===> Total Chemistry                     250.514
  => WRF                                  2794.905
  ===> Total WRF-GC                       3045.419
 max optd  4.5185168E+30
 max taucldi  1.3148589E-02
 max taucldw   20.08865    
 Switching is not necessary as we are already
 in the right domain!
 GIGC_Chunk_Run: Running for in-PET grid #           1
 GIGC_Chunk_Run: Received new grid IM, JM, LM =          14           9
          49
 =================================================
 W R F - G C   T I M E R S
    Domain           1 (Units: s)
 =================================================
  => Coupler Component                       4.286
   -- Physics & Parameterization             1.175
   -- Diagnostics Out                        0.000
  => GEOS-Chem Column                      247.242
  ===> Total Chemistry                     251.528
  => WRF                                  2813.156
  ===> Total WRF-GC                       3064.684
 max optd  4.5185168E+30
 max taucldi  1.3294873E-02
 max taucldw   19.40627    
 Switching is not necessary as we are already
 in the right domain!
 GIGC_Chunk_Run: Running for in-PET grid #           1
 GIGC_Chunk_Run: Received new grid IM, JM, LM =          14           9
          49
 =================================================
 W R F - G C   T I M E R S
    Domain           1 (Units: s)
 =================================================
  => Coupler Component                       4.318
   -- Physics & Parameterization             1.185
   -- Diagnostics Out                        0.000
  => GEOS-Chem Column                      248.210
  ===> Total Chemistry                     252.528
  => WRF                                  2831.364
  ===> Total WRF-GC                       3083.892
 max optd  4.5185168E+30
 max taucldi  1.3432871E-02
 max taucldw   33.66096    
 Switching is not necessary as we are already
 in the right domain!
 GIGC_Chunk_Run: Running for in-PET grid #           1
 GIGC_Chunk_Run: Received new grid IM, JM, LM =          14           9
          49
 =================================================
 W R F - G C   T I M E R S
    Domain           1 (Units: s)
 =================================================
  => Coupler Component                       4.353
   -- Physics & Parameterization             1.193
   -- Diagnostics Out                        0.000
  => GEOS-Chem Column                      249.187
  ===> Total Chemistry                     253.540
  => WRF                                  2849.668
  ===> Total WRF-GC                       3103.208
 max optd  4.5185168E+30
 max taucldi  1.9068655E-02
 max taucldw   35.49988    
 Switching is not necessary as we are already
 in the right domain!
 GIGC_Chunk_Run: Running for in-PET grid #           1
 GIGC_Chunk_Run: Received new grid IM, JM, LM =          14           9
          49
 =================================================
 W R F - G C   T I M E R S
    Domain           1 (Units: s)
 =================================================
  => Coupler Component                       4.391
   -- Physics & Parameterization             1.202
   -- Diagnostics Out                        0.000
  => GEOS-Chem Column                      250.158
  ===> Total Chemistry                     254.549
  => WRF                                  2867.896
  ===> Total WRF-GC                       3122.445
 max optd  4.5185168E+30
 max taucldi  2.3479648E-02
 max taucldw   35.77160    
 Switching is not necessary as we are already
 in the right domain!
 GIGC_Chunk_Run: Running for in-PET grid #           1
 GIGC_Chunk_Run: Received new grid IM, JM, LM =          14           9
          49
 =================================================
 W R F - G C   T I M E R S
    Domain           1 (Units: s)
 =================================================
  => Coupler Component                       4.424
   -- Physics & Parameterization             1.211
   -- Diagnostics Out                        0.000
  => GEOS-Chem Column                      251.141
  ===> Total Chemistry                     255.565
  => WRF                                  2886.184
  ===> Total WRF-GC                       3141.749
 HOURLY EMISSIONS UPDATE TIME    39600.0       0.0
mediation_integrate: med_read_wrf_chem_emissions: Read emissions for time 2018-01-01_11:00:00
 max optd  4.5185168E+30
 max taucldi  2.5109451E-02
 max taucldw   40.42762    
 Switching is not necessary as we are already
 in the right domain!
 GIGC_Chunk_Run: Running for in-PET grid #           1
 GIGC_Chunk_Run: Received new grid IM, JM, LM =          14           9
          49
 =================================================
 W R F - G C   T I M E R S
    Domain           1 (Units: s)
 =================================================
  => Coupler Component                       4.466
   -- Physics & Parameterization             1.221
   -- Diagnostics Out                        0.000
  => GEOS-Chem Column                      252.105
  ===> Total Chemistry                     256.571
  => WRF                                  2904.432
  ===> Total WRF-GC                       3161.004
 max optd  4.5185168E+30
 max taucldi  2.4521064E-02
 max taucldw   42.35955    
 Switching is not necessary as we are already
 in the right domain!
 GIGC_Chunk_Run: Running for in-PET grid #           1
 GIGC_Chunk_Run: Received new grid IM, JM, LM =          14           9
          49
 =================================================
 W R F - G C   T I M E R S
    Domain           1 (Units: s)
 =================================================
  => Coupler Component                       4.502
   -- Physics & Parameterization             1.230
   -- Diagnostics Out                        0.000
  => GEOS-Chem Column                      253.078
  ===> Total Chemistry                     257.579
  => WRF                                  2922.663
  ===> Total WRF-GC                       3180.242
 max optd  4.5185168E+30
 max taucldi  2.2202251E-02
 max taucldw   40.81223    
 Switching is not necessary as we are already
 in the right domain!
 GIGC_Chunk_Run: Running for in-PET grid #           1
 GIGC_Chunk_Run: Received new grid IM, JM, LM =          14           9
          49
 =================================================
 W R F - G C   T I M E R S
    Domain           1 (Units: s)
 =================================================
  => Coupler Component                       4.539
   -- Physics & Parameterization             1.239
   -- Diagnostics Out                        0.000
  => GEOS-Chem Column                      254.043
  ===> Total Chemistry                     258.582
  => WRF                                  2940.980
  ===> Total WRF-GC                       3199.562
 max optd  4.5185168E+30
 max taucldi  2.0007292E-02
 max taucldw   51.80078    
 Switching is not necessary as we are already
 in the right domain!
 GIGC_Chunk_Run: Running for in-PET grid #           1
 GIGC_Chunk_Run: Received new grid IM, JM, LM =          14           9
          49
 =================================================
 W R F - G C   T I M E R S
    Domain           1 (Units: s)
 =================================================
  => Coupler Component                       4.570
   -- Physics & Parameterization             1.248
   -- Diagnostics Out                        0.000
  => GEOS-Chem Column                      255.031
  ===> Total Chemistry                     259.601
  => WRF                                  2959.356
  ===> Total WRF-GC                       3218.957
 max optd  4.5185168E+30
 max taucldi  2.0268956E-02
 max taucldw   49.76589    
 Switching is not necessary as we are already
 in the right domain!
 GIGC_Chunk_Run: Running for in-PET grid #           1
 GIGC_Chunk_Run: Received new grid IM, JM, LM =          14           9
          49
 =================================================
 W R F - G C   T I M E R S
    Domain           1 (Units: s)
 =================================================
  => Coupler Component                       4.603
   -- Physics & Parameterization             1.257
   -- Diagnostics Out                        0.000
  => GEOS-Chem Column                      255.994
  ===> Total Chemistry                     260.597
  => WRF                                  2977.843
  ===> Total WRF-GC                       3238.439
 max optd  4.5185168E+30
 max taucldi  2.1234171E-02
 max taucldw   47.85949    
 Switching is not necessary as we are already
 in the right domain!
 GIGC_Chunk_Run: Running for in-PET grid #           1
 GIGC_Chunk_Run: Received new grid IM, JM, LM =          14           9
          49
 =================================================
 W R F - G C   T I M E R S
    Domain           1 (Units: s)
 =================================================
  => Coupler Component                       4.637
   -- Physics & Parameterization             1.265
   -- Diagnostics Out                        0.000
  => GEOS-Chem Column                      256.973
  ===> Total Chemistry                     261.610
  => WRF                                  2996.341
  ===> Total WRF-GC                       3257.952
 max optd  4.5185168E+30
 max taucldi  2.0777371E-02
 max taucldw   47.37380    
 Switching is not necessary as we are already
 in the right domain!
 GIGC_Chunk_Run: Running for in-PET grid #           1
 GIGC_Chunk_Run: Received new grid IM, JM, LM =          14           9
          49
 =================================================
 W R F - G C   T I M E R S
    Domain           1 (Units: s)
 =================================================
  => Coupler Component                       4.675
   -- Physics & Parameterization             1.274
   -- Diagnostics Out                        0.000
  => GEOS-Chem Column                      257.942
  ===> Total Chemistry                     262.617
  => WRF                                  3014.959
  ===> Total WRF-GC                       3277.575
 max optd  4.5185168E+30
 max taucldi  2.3103183E-02
 max taucldw   47.27909    
 Switching is not necessary as we are already
 in the right domain!
 GIGC_Chunk_Run: Running for in-PET grid #           1
 GIGC_Chunk_Run: Received new grid IM, JM, LM =          14           9
          49
 =================================================
 W R F - G C   T I M E R S
    Domain           1 (Units: s)
 =================================================
  => Coupler Component                       4.713
   -- Physics & Parameterization             1.283
   -- Diagnostics Out                        0.000
  => GEOS-Chem Column                      258.910
  ===> Total Chemistry                     263.623
  => WRF                                  3033.637
  ===> Total WRF-GC                       3297.260
 max optd  4.5185168E+30
 max taucldi  2.5554303E-02
 max taucldw   45.55064    
 Switching is not necessary as we are already
 in the right domain!
 GIGC_Chunk_Run: Running for in-PET grid #           1
 GIGC_Chunk_Run: Received new grid IM, JM, LM =          14           9
          49
 =================================================
 W R F - G C   T I M E R S
    Domain           1 (Units: s)
 =================================================
  => Coupler Component                       4.749
   -- Physics & Parameterization             1.293
   -- Diagnostics Out                        0.000
  => GEOS-Chem Column                      259.854
  ===> Total Chemistry                     264.603
  => WRF                                  3052.354
  ===> Total WRF-GC                       3316.956
 max optd  4.5185168E+30
 max taucldi  2.8889345E-02
 max taucldw   47.53925    
 Switching is not necessary as we are already
 in the right domain!
 GIGC_Chunk_Run: Running for in-PET grid #           1
 GIGC_Chunk_Run: Received new grid IM, JM, LM =          14           9
          49
 =================================================
 W R F - G C   T I M E R S
    Domain           1 (Units: s)
 =================================================
  => Coupler Component                       4.785
   -- Physics & Parameterization             1.302
   -- Diagnostics Out                        0.000
  => GEOS-Chem Column                      260.830
  ===> Total Chemistry                     265.615
  => WRF                                  3071.411
  ===> Total WRF-GC                       3337.026
 max optd  4.5185168E+30
 max taucldi  3.2376368E-02
 max taucldw   48.24677    
 Switching is not necessary as we are already
 in the right domain!
 GIGC_Chunk_Run: Running for in-PET grid #           1
 GIGC_Chunk_Run: Received new grid IM, JM, LM =          14           9
          49
 =================================================
 W R F - G C   T I M E R S
    Domain           1 (Units: s)
 =================================================
  => Coupler Component                       4.822
   -- Physics & Parameterization             1.311
   -- Diagnostics Out                        0.000
  => GEOS-Chem Column                      261.772
  ===> Total Chemistry                     266.593
  => WRF                                  3090.259
  ===> Total WRF-GC                       3356.852
 max optd  4.5185168E+30
 max taucldi  3.4922194E-02
 max taucldw   48.03002    
 Switching is not necessary as we are already
 in the right domain!
 GIGC_Chunk_Run: Running for in-PET grid #           1
 GIGC_Chunk_Run: Received new grid IM, JM, LM =          14           9
          49
 =================================================
 W R F - G C   T I M E R S
    Domain           1 (Units: s)
 =================================================
  => Coupler Component                       4.861
   -- Physics & Parameterization             1.321
   -- Diagnostics Out                        0.000
  => GEOS-Chem Column                      262.740
  ===> Total Chemistry                     267.601
  => WRF                                  3109.148
  ===> Total WRF-GC                       3376.749
d01 2018-01-01_12:00:00 wrf: SUCCESS COMPLETE WRF
