taskid: 3581 hostname: ip-172-31-12-63
Quilting with   1 groups of   0 I/O tasks.
 Ntasks in X           64 , ntasks in Y           72
--- WARNING: traj_opt is zero, but num_traj is not zero; setting num_traj to zero.
--- NOTE: sst_update is 0, setting io_form_auxinput4 = 0 and auxinput4_interval = 0 for all domains
--- NOTE: grid_fdda is 0 for domain      1, setting gfdda interval and ending time to 0 for that domain.
--- NOTE: both grid_sfdda and pxlsm_soil_nudge are 0 for domain      1, setting sgfdda interval and ending time to 0 for that domain.
--- NOTE: obs_nudge_opt is 0 for domain      1, setting obs nudging interval and ending time to 0 for that domain.
--- NOTE: bl_pbl_physics /= 4, implies mfshconv must be 0, resetting
Need MYNN PBL for icloud_bl = 1, resetting to 0
*************************************
No physics suite selected.
Physics options will be used directly from the namelist.
*************************************
--- NOTE: RRTMG radiation is in use, setting:  levsiz=59, alevsiz=12, no_src_types=6
--- NOTE: num_soil_layers has been set to      4
WRF V3.9.1.1 MODEL
 *************************************
 Parent domain
 ids,ide,jds,jde            1         950           1         650
 ims,ime,jms,jme          899         927         490         512
 ips,ipe,jps,jpe          906         920         497         505
 *************************************
DYNAMICS OPTION: Eulerian Mass Coordinate
   alloc_space_field: domain            1 ,              203623800  bytes allocated
  med_initialdata_input: calling input_input
Max map factor in domain 1 =  1.40. Scale the dt in the model accordingly.
INPUT LandUse = "USGS"
 LANDUSE TYPE = "USGS" FOUND          33  CATEGORIES           2  SEASONS WATER CATEGORY =           16  SNOW CATEGORY =           24
INITIALIZE THREE Noah LSM RELATED TABLES
*****************************************************************
  __          _______  ______       _____  _____ _    _ _____
  \ \        / /  __ \|  ____|     / ____|/ ____| |  | |  __ \
   \ \  /\  / /| |__) | |__ ______| |  __| |    | |__| | |__) |
    \ \/  \/ / |  _  /|  __|______| | |_ | |    |  __  |  ___/
     \  /\  /  | | \ \| |         | |__| | |____| |  | | |
      \/  \/   |_|  \_\_|          \_____|\_____|_|  |_|_|
*****************************************************************
         WRF-GC MODEL, VERSION 1811.11 - WRF BINDINGS
 For errors, suggestions & feedback email linhaipeng@pku.edu.cn
*****************************************************************
    This is domain            1
 ### GIGC_Stateful_Mod: Root CPU, after READ_INPUT_FILE
  Linoz Data:  O3 climatology :                  z*=10, 12, ..., 58                             2.700E-08 1.083E-05
  Linoz Data:  Temperature climatology :         z*=10, 12, ..., 58                             1.859E+02 2.904E+02
  Linoz Data:  Column O3 above box climalology : z*=10, 12, ..., 58                             7.538E-02 3.770E+02
  Linoz Data:  P-L O3 climatology (mr/s):        z*=10, 12, ..., 58                            -1.590E-10 2.835E-11
  Linoz Data:  d(P-L)/dO3 (1/s) :                z*=10, 12, ..., 58                            -8.386E-04 7.556E-09
  Linoz Data:  d(P-L)/dT (mr/K) :                z*=10, 12, ..., 58                            -5.742E-12 4.615E-14
  Linoz Data:  d(P-L)/d(column O3) (mr/DU) :     z*=10, 12, ..., 58                            -1.921E-12 5.038E-10
 ### GIGC_Stateful_Mod: Root CPU, after LINOZ_READ
 %%%%%%%%% GIGC IN-PET GRID SWITCHING HACKS %%%%%%%%%
     (Not very) Proudly brought to you by hplin      
 Some debug information:
 ID:           1
 IM, JM, LM:          15           9          49  will be set as PAR
 Allocs: CMN T GC F
 RC at entry-point:           0
 %%%%%%%%%%%%%%%%%%%%%%%%%%%%%%%%%%%%%%%%%%%%%%%%%%%%
 No need to switch HcoState for ID           1
 Exit RC:            0
 %%%%%%%%%    FINISHED GIGC_Switch_Dims    %%%%%%%%%
 GIGC_Chunk_Init: Received new grid IM, JM, LM =          15           9
          49
     ### GIGC_INIT_SIMULATION: after Input_Opt% setups
     ### GIGC_INIT_SIMULATION: after GC_Init_All
     ### GIGC_INIT_SIMULATION: after GC_Init_Extra
     ### GIGC_INIT_SIMULATION: after INIT_FJX
 # GIGC_CHUNK_MOD: after SV save, ID =           1
 WRFGC chemics_init: Following information regarding Input_Opt% (for all doms)
 After domain           1
 HPC:  T
 LPRT:  F
 DoConv:  T
 DoDryDep:  T
 DoEmis:  T
 DoChem:  T
 DoTurb:  T
 DoWetDep:  T

 tropopause_init: DONE intialized domain            1

 mediation_integrate: med_read_wrf_chem_emissions: Open file wrfchemi_00z_d01
 HOURLY EMISSIONS UPDATE TIME        0.0       0.0
mediation_integrate: med_read_wrf_chem_emissions: Read emissions for time 2018-01-01_00:00:00
open_aux_u : error opening wrffirechemi_d01_2018-01-01_00:00:00 for reading. 100
open_aux_u : error opening wrfchemi_gocart_bg_d01 for reading. 100
d01 2018-01-01_00:00:00 Input data processed for aux input   8 for domain   1
open_aux_u : error opening wrfchemv_d01 for reading. 100
 Tile Strategy is not specified. Assuming 1D-Y
WRF TILE   1 IS    906 IE    920 JS    497 JE    505
WRF NUMBER OF TILES =   1
 max optd  7.6754579E+16
 max taucldi  0.0000000E+00
 max taucldw  0.0000000E+00
 =================================================
 W R F - G C   T I M E R S
    Domain           1 (Units: s)
 =================================================
  => Coupler Component                       0.029
   -- Physics & Parameterization             0.001
   -- Diagnostics Out                        0.000
  => GEOS-Chem Column                        0.000
  ===> Total Chemistry                       0.029
  => WRF                                     0.000
  ===> Total WRF-GC                          0.029
 max optd  7.6754579E+16
 max taucldi  1.0000007E-14
 max taucldw  1.0000007E-14
 %%%%%%%%% GIGC IN-PET GRID SWITCHING HACKS %%%%%%%%%
     (Not very) Proudly brought to you by hplin      
 Some debug information:
 ID:           1
 IM, JM, LM:          15           9          49  will be set as PAR
 Allocs: CMN T GC T
 RC at entry-point:           0
 %%%%%%%%%%%%%%%%%%%%%%%%%%%%%%%%%%%%%%%%%%%%%%%%%%%%
 No need to switch HcoState for ID           1
 Debug HcoState nSpc, NX, NY, NZ         163          15           9          49
 Exit RC:            0
 %%%%%%%%%    FINISHED GIGC_Switch_Dims    %%%%%%%%%
 GIGC_Chunk_Run: Running for in-PET grid #           1
 GIGC_Chunk_Run: Received new grid IM, JM, LM =          15           9
          49
HEMCO: Opening /fsx/HEMCO/BIOFUEL/v2014-07/biofuel.geos.4x5.nc
HEMCO: Opening /fsx/HEMCO/BROMINE/v2015-02/Bromocarb_Liang2010.nc
HEMCO: Opening /fsx/HEMCO/ACET/v2014-07/ACET_seawater.generic.1x1.nc
HEMCO: Opening /fsx/HEMCO/SOILNOX/v2014-07/DepReservoirDefault.nc
HEMCO: Opening /fsx/HEMCO/SOILNOX/v2014-07/soilNOx.landtype.generic.025x025.1L.nc
HEMCO: Opening /fsx/HEMCO/SOILNOX/v2014-07/soilNOx.climate.generic.05x05.nc
HEMCO: Opening /fsx/HEMCO/DUST_DEAD/v2014-07/dst_tibds.geos.4x5.nc
HEMCO: Opening /fsx/HEMCO/DUST_DEAD/v2014-07/GOCART_src_fn.geos.4x5.nc
HEMCO: Opening /fsx/HEMCO/MEGAN/v2018-05/MEGAN2.1_EF.geos.025x03125.nc
HEMCO: Opening /fsx/HEMCO/MEGAN/v2017-07/CLM4_PFT.geos.025x03125.nc
HEMCO: Opening /fsx/HEMCO/TIMEZONES/v2015-02/timezones_voronoi_1x1.nc
HEMCO: Opening /fsx/HEMCO/STRAT/v2015-01/Bry/GEOSCCM_Bry.200701.day.nc
HEMCO: Opening /fsx/HEMCO/STRAT/v2015-01/Bry/GEOSCCM_Bry.200701.night.nc
HEMCO: Opening /fsx/HEMCO/OMOC/v2018-01/OMOC.DJF.01x01.nc
HEMCO: Opening /fsx/HEMCO/OMOC/v2018-01/OMOC.MAM.01x01.nc
HEMCO: Opening /fsx/HEMCO/OMOC/v2018-01/OMOC.JJA.01x01.nc
HEMCO: Opening /fsx/HEMCO/OMOC/v2018-01/OMOC.SON.01x01.nc
HEMCO: Opening /fsx/HEMCO/AnnualScalar/v2014-07/AnnualScalar.geos.1x1.nc
HEMCO: Opening /fsx/HEMCO/EDGARv42/v2015-02/NO/EDGAR_hourly_NOxScal.nc
HEMCO: Opening /fsx/HEMCO/MASKS/v2018-09/EMEP_mask.geos.1x1.20151222.nc
HEMCO: Opening /fsx/HEMCO/MASKS/v2018-09/Canada_mask.geos.1x1.nc
HEMCO: Opening /fsx/HEMCO/MASKS/v2018-09/SE_Asia_mask.generic.1x1.nc
HEMCO: Opening /fsx/HEMCO/MASKS/v2018-09/MIX_Asia_mask.generic.025x025.nc
HEMCO: Opening /fsx/HEMCO/MASKS/v2018-09/CONUS_Mask.01x01.nc
HEMCO: Opening /fsx/HEMCO/MASKS/v2018-09/AF_LANDMASK.geos.05x0666.global.nc
HEMCO: Opening /fsx/HEMCO/MASKS/v2018-09/China_mask.generic.1x1.nc
HEMCO: Opening /fsx/HEMCO/MASKS/v2018-09/India_mask.generic.1x1.nc
HEMCO: Opening /fsx/HEMCO/AnnualScalar/v2014-07/AnnualScalar.geos.1x1.nc
HEMCO: Opening /fsx/HEMCO/NH3/v2014-07/NH3_geos.4x5.nc
HEMCO: Opening /fsx/HEMCO/NH3/v2018-04/NH3_Arctic_seabirds.nc
HEMCO: Opening /fsx/HEMCO/CEDS/v2018-08/2014/NO-em-anthro_CMIP_CEDS_2014.nc
HEMCO: Opening /fsx/HEMCO/CEDS/v2018-08/2014/CO-em-anthro_CMIP_CEDS_2014.nc
HEMCO: Opening /fsx/HEMCO/CEDS/v2018-08/2014/SO2-em-anthro_CMIP_CEDS_2014.nc
HEMCO: Opening /fsx/HEMCO/CEDS/v2018-08/2014/NH3-em-anthro_CMIP_CEDS_2014.nc
HEMCO: Opening /fsx/HEMCO/CEDS/v2018-08/2014/BC-em-anthro_CMIP_CEDS_2014.nc
HEMCO: Opening /fsx/HEMCO/CEDS/v2018-08/2014/OC-em-anthro_CMIP_CEDS_2014.nc
HEMCO: Opening /fsx/HEMCO/CEDS/v2018-08/2014/EOH-em-anthro_CMIP_CEDS_2014.nc
HEMCO: Opening /fsx/HEMCO/CEDS/v2018-08/2014/C2H6-em-anthro_CMIP_CEDS_2014.nc
HEMCO: Opening /fsx/HEMCO/CEDS/v2018-08/2014/C3H8-em-anthro_CMIP_CEDS_2014.nc
HEMCO: Opening /fsx/HEMCO/CEDS/v2018-08/2014/ALK4_butanes-em-anthro_CMIP_CEDS_2014.nc
HEMCO: Opening /fsx/HEMCO/CEDS/v2018-08/2014/ALK4_pentanes-em-anthro_CMIP_CEDS_2014.nc
HEMCO: Opening /fsx/HEMCO/CEDS/v2018-08/2014/ALK4_hexanes-em-anthro_CMIP_CEDS_2014.nc
HEMCO: Opening /fsx/HEMCO/CEDS/v2018-08/2014/PRPE-em-anthro_CMIP_CEDS_2014.nc
HEMCO: Opening /fsx/HEMCO/CEDS/v2018-08/2014/BENZ-em-anthro_CMIP_CEDS_2014.nc
HEMCO: Opening /fsx/HEMCO/CEDS/v2018-08/2014/TOLU-em-anthro_CMIP_CEDS_2014.nc
HEMCO: Opening /fsx/HEMCO/CEDS/v2018-08/2014/XYLE-em-anthro_CMIP_CEDS_2014.nc
HEMCO: Opening /fsx/HEMCO/CEDS/v2018-08/2014/CH2O-em-anthro_CMIP_CEDS_2014.nc
HEMCO: Opening /fsx/HEMCO/CEDS/v2018-08/2014/ALD2-em-anthro_CMIP_CEDS_2014.nc
HEMCO: Opening /fsx/HEMCO/CEDS/v2018-08/2014/MEK-em-anthro_CMIP_CEDS_2014.nc
HEMCO: Opening /fsx/HEMCO/CEDS/v2018-08/2014/HCOOH-em-anthro_CMIP_CEDS_2014.nc
HEMCO: Opening /fsx/HEMCO/C2H6_2010/v2017-05/C2H6_global_anth_biof.201001.nc
HEMCO: Opening /fsx/HEMCO/NEI2011/v2017-02-MM/01/NEI11_0.1x0.1_201101_monmean.nc
HEMCO: Opening /fsx/HEMCO/NEI2011/v2017-02-MM/01/NEI11_0.1x0.1_201101_monmean_egu.nc
HEMCO: Opening /fsx/HEMCO/NEI2011/v2017-02-MM/01/NEI11_0.1x0.1_201101_monmean_egupk.nc
HEMCO: Opening /fsx/HEMCO/NEI2011/v2017-02-MM/01/NEI11_0.1x0.1_201101_monmean_oilgas.nc
HEMCO: Opening /fsx/HEMCO/NEI2011/v2017-02-MM/01/NEI11_0.1x0.1_201101_monmean_othpt.nc
HEMCO: Opening /fsx/HEMCO/NEI2011/v2017-02-MM/01/NEI11_0.1x0.1_201101_monmean_ptnonipm.nc
HEMCO: Opening /fsx/HEMCO/IODINE/v2017-09/CH3I_monthly_emissions_Ordonez_2012_COARDS.nc
HEMCO: Opening /fsx/HEMCO/IODINE/v2017-09/CH2I2_monthly_emissions_Ordonez_2012_COARDS.nc
HEMCO: Opening /fsx/HEMCO/IODINE/v2017-09/CH2ICl_monthly_emissions_Ordonez_2012_COARDS.nc
HEMCO: Opening /fsx/HEMCO/IODINE/v2017-09/CH2IBr_monthly_emissions_Ordonez_2012_COARDS.nc
HEMCO: Opening /fsx/HEMCO/CEDS/v2018-08/2014/CO-em-anthro_CMIP_CEDS_2014.nc
HEMCO: Opening /fsx/HEMCO/CEDS/v2018-08/2014/SO2-em-anthro_CMIP_CEDS_2014.nc
HEMCO: Opening /fsx/HEMCO/CEDS/v2018-08/2014/NH3-em-anthro_CMIP_CEDS_2014.nc
HEMCO: Opening /fsx/HEMCO/CEDS/v2018-08/2014/BC-em-anthro_CMIP_CEDS_2014.nc
HEMCO: Opening /fsx/HEMCO/CEDS/v2018-08/2014/OC-em-anthro_CMIP_CEDS_2014.nc
HEMCO: Opening /fsx/HEMCO/CEDS/v2018-08/2014/EOH-em-anthro_CMIP_CEDS_2014.nc
HEMCO: Opening /fsx/HEMCO/CEDS/v2018-08/2014/C2H6-em-anthro_CMIP_CEDS_2014.nc
HEMCO: Opening /fsx/HEMCO/CEDS/v2018-08/2014/C3H8-em-anthro_CMIP_CEDS_2014.nc
HEMCO: Opening /fsx/HEMCO/CEDS/v2018-08/2014/ALK4_butanes-em-anthro_CMIP_CEDS_2014.nc
HEMCO: Opening /fsx/HEMCO/CEDS/v2018-08/2014/ALK4_pentanes-em-anthro_CMIP_CEDS_2014.nc
HEMCO: Opening /fsx/HEMCO/CEDS/v2018-08/2014/ALK4_hexanes-em-anthro_CMIP_CEDS_2014.nc
HEMCO: Opening /fsx/HEMCO/CEDS/v2018-08/2014/PRPE-em-anthro_CMIP_CEDS_2014.nc
HEMCO: Opening /fsx/HEMCO/CEDS/v2018-08/2014/BENZ-em-anthro_CMIP_CEDS_2014.nc
HEMCO: Opening /fsx/HEMCO/CEDS/v2018-08/2014/TOLU-em-anthro_CMIP_CEDS_2014.nc
HEMCO: Opening /fsx/HEMCO/CEDS/v2018-08/2014/XYLE-em-anthro_CMIP_CEDS_2014.nc
HEMCO: Opening /fsx/HEMCO/CEDS/v2018-08/2014/CH2O-em-anthro_CMIP_CEDS_2014.nc
HEMCO: Opening /fsx/HEMCO/CEDS/v2018-08/2014/ALD2-em-anthro_CMIP_CEDS_2014.nc
HEMCO: Opening /fsx/HEMCO/CEDS/v2018-08/2014/MEK-em-anthro_CMIP_CEDS_2014.nc
HEMCO: Opening /fsx/HEMCO/CEDS/v2018-08/2014/HCOOH-em-anthro_CMIP_CEDS_2014.nc
HEMCO: Opening /fsx/HEMCO/CEDS/v2018-08/2014/NO-em-anthro_CMIP_CEDS_2014.nc
HEMCO: Opening /fsx/HEMCO/AEIC/v2015-01/AEIC.47L.gen.1x1.nc
HEMCO: Opening /fsx/HEMCO/ALD2/v2017-03/resp.geos.2x25.nc
HEMCO: Opening /fsx/HEMCO/DMS/v2015-07/DMS_lana.geos.1x1.nc
HEMCO: Opening /fsx/HEMCO/ALD2/v2017-03/ALD2_seawater.geos.2x25.nc
HEMCO: Opening /fsx/HEMCO/DUST_DEAD/v2014-07/dst_tvbds.geos.4x5.nc
HEMCO: Opening /fsx/HEMCO/DUST_DEAD/v2018-04/PM25FINE_ECLIPSE_2015.geos.2x25.nc
HEMCO: Opening /fsx/HEMCO/SOA/v2014-07/NVOC.geos.1x1.nc
HEMCO: Opening /fsx/HEMCO/GFED4/v2015-10/2016/GFED4_gen.025x025.201601.nc
HEMCO: Opening /fsx/HEMCO/UVALBEDO/v2015-03/uvalbedo.geos.2x25.nc
HEMCO: Opening /fsx/HEMCO/GMI/v2015-02/gmi.clim.ACET.geos5.2x25.nc
HEMCO: Opening /fsx/HEMCO/GMI/v2015-02/gmi.clim.ACTA.geos5.2x25.nc
HEMCO: Opening /fsx/HEMCO/GMI/v2015-02/gmi.clim.ALD2.geos5.2x25.nc
HEMCO: Opening /fsx/HEMCO/GMI/v2015-02/gmi.clim.ALK4.geos5.2x25.nc
HEMCO: Opening /fsx/HEMCO/GMI/v2015-02/gmi.clim.C2H6.geos5.2x25.nc
HEMCO: Opening /fsx/HEMCO/GMI/v2015-02/gmi.clim.C3H8.geos5.2x25.nc
HEMCO: Opening /fsx/HEMCO/GMI/v2015-02/gmi.clim.CCl4.geos5.2x25.nc
HEMCO: Opening /fsx/HEMCO/GMI/v2015-02/gmi.clim.CF2Cl2.geos5.2x25.nc
HEMCO: Opening /fsx/HEMCO/GMI/v2015-02/gmi.clim.CF2ClBr.geos5.2x25.nc
HEMCO: Opening /fsx/HEMCO/GMI/v2015-02/gmi.clim.CFC113.geos5.2x25.nc
HEMCO: Opening /fsx/HEMCO/GMI/v2015-02/gmi.clim.CFC114.geos5.2x25.nc
HEMCO: Opening /fsx/HEMCO/GMI/v2015-02/gmi.clim.CFC115.geos5.2x25.nc
HEMCO: Opening /fsx/HEMCO/GMI/v2015-02/gmi.clim.CFCl3.geos5.2x25.nc
HEMCO: Opening /fsx/HEMCO/GMI/v2015-02/gmi.clim.CH2O.geos5.2x25.nc
HEMCO: Opening /fsx/HEMCO/GMI/v2015-02/gmi.clim.CH3CCl3.geos5.2x25.nc
HEMCO: Opening /fsx/HEMCO/GMI/v2015-02/gmi.clim.CH3Cl.geos5.2x25.nc
HEMCO: Opening /fsx/HEMCO/GMI/v2015-02/gmi.clim.CH4.geos5.2x25.nc
HEMCO: Opening /fsx/HEMCO/GMI/v2015-02/gmi.clim.CO.geos5.2x25.nc
HEMCO: Opening /fsx/HEMCO/GMI/v2015-02/gmi.clim.Cl.geos5.2x25.nc
HEMCO: Opening /fsx/HEMCO/GMI/v2015-02/gmi.clim.Cl2.geos5.2x25.nc
HEMCO: Opening /fsx/HEMCO/GMI/v2015-02/gmi.clim.Cl2O2.geos5.2x25.nc
HEMCO: Opening /fsx/HEMCO/GMI/v2015-02/gmi.clim.ClO.geos5.2x25.nc
HEMCO: Opening /fsx/HEMCO/GMI/v2015-02/gmi.clim.EOH.geos5.2x25.nc
HEMCO: Opening /fsx/HEMCO/GMI/v2015-02/gmi.clim.GLYC.geos5.2x25.nc
HEMCO: Opening /fsx/HEMCO/GMI/v2015-02/gmi.clim.GLYX.geos5.2x25.nc
HEMCO: Opening /fsx/HEMCO/GMI/v2015-02/gmi.clim.H2402.geos5.2x25.nc
HEMCO: Opening /fsx/HEMCO/GMI/v2015-02/gmi.clim.H2O.geos5.2x25.nc
HEMCO: Opening /fsx/HEMCO/GMI/v2015-02/gmi.clim.H2O2.geos5.2x25.nc
HEMCO: Opening /fsx/HEMCO/GMI/v2015-02/gmi.clim.HAC.geos5.2x25.nc
HEMCO: Opening /fsx/HEMCO/GMI/v2015-02/gmi.clim.HCFC141b.geos5.2x25.nc
HEMCO: Opening /fsx/HEMCO/GMI/v2015-02/gmi.clim.HCFC142b.geos5.2x25.nc
HEMCO: Opening /fsx/HEMCO/GMI/v2015-02/gmi.clim.HCFC22.geos5.2x25.nc
HEMCO: Opening /fsx/HEMCO/GMI/v2015-02/gmi.clim.HCOOH.geos5.2x25.20170108.nc
HEMCO: Opening /fsx/HEMCO/GMI/v2015-02/gmi.clim.HCl.geos5.2x25.nc
HEMCO: Opening /fsx/HEMCO/GMI/v2015-02/gmi.clim.HNO2.geos5.2x25.nc
HEMCO: Opening /fsx/HEMCO/GMI/v2015-02/gmi.clim.HNO3.geos5.2x25.nc
HEMCO: Opening /fsx/HEMCO/GMI/v2015-02/gmi.clim.HNO4.geos5.2x25.nc
HEMCO: Opening /fsx/HEMCO/GMI/v2015-02/gmi.clim.HOCl.geos5.2x25.nc
HEMCO: Opening /fsx/HEMCO/GMI/v2015-02/gmi.clim.ISN1.geos5.2x25.nc
HEMCO: Opening /fsx/HEMCO/GMI/v2015-02/gmi.clim.ISOP.geos5.2x25.nc
HEMCO: Opening /fsx/HEMCO/GMI/v2015-02/gmi.clim.MACR.geos5.2x25.nc
HEMCO: Opening /fsx/HEMCO/GMI/v2015-02/gmi.clim.MAP.geos5.2x25.nc
HEMCO: Opening /fsx/HEMCO/GMI/v2015-02/gmi.clim.MEK.geos5.2x25.nc
HEMCO: Opening /fsx/HEMCO/GMI/v2015-02/gmi.clim.MGLY.geos5.2x25.nc
HEMCO: Opening /fsx/HEMCO/GMI/v2015-02/gmi.clim.MP.geos5.2x25.nc
HEMCO: Opening /fsx/HEMCO/GMI/v2015-02/gmi.clim.MVK.geos5.2x25.nc
HEMCO: Opening /fsx/HEMCO/GMI/v2015-02/gmi.clim.N2O.geos5.2x25.nc
HEMCO: Opening /fsx/HEMCO/GMI/v2015-02/gmi.clim.N2O5.geos5.2x25.nc
HEMCO: Opening /fsx/HEMCO/GMI/v2015-02/gmi.clim.NO.geos5.2x25.nc
HEMCO: Opening /fsx/HEMCO/GMI/v2015-02/gmi.clim.NO2.geos5.2x25.nc
HEMCO: Opening /fsx/HEMCO/GMI/v2015-02/gmi.clim.NO3.geos5.2x25.nc
HEMCO: Opening /fsx/HEMCO/GMI/v2015-02/gmi.clim.O3.geos5.2x25.nc
HEMCO: Opening /fsx/HEMCO/GMI/v2015-02/gmi.clim.OClO.geos5.2x25.nc
HEMCO: Opening /fsx/HEMCO/GMI/v2015-02/gmi.clim.PAN.geos5.2x25.nc
HEMCO: Opening /fsx/HEMCO/GMI/v2015-02/gmi.clim.NPMN.geos5.2x25.nc
HEMCO: Opening /fsx/HEMCO/GMI/v2015-02/gmi.clim.IPMN.geos5.2x25.nc
HEMCO: Opening /fsx/HEMCO/GMI/v2015-02/gmi.clim.PPN.geos5.2x25.nc
HEMCO: Opening /fsx/HEMCO/GMI/v2015-02/gmi.clim.PRPE.geos5.2x25.nc
HEMCO: Opening /fsx/HEMCO/GMI/v2015-02/gmi.clim.R4N2.geos5.2x25.nc
HEMCO: Opening /fsx/HEMCO/GMI/v2015-02/gmi.clim.RCHO.geos5.2x25.nc
HEMCO: Opening /fsx/HEMCO/GMI/v2015-02/gmi.clim.RIPA.geos5.2x25.nc
HEMCO: Opening /fsx/HEMCO/GMI/v2015-02/gmi.clim.RIPB.geos5.2x25.nc
HEMCO: Opening /fsx/HEMCO/GMI/v2015-02/gmi.clim.RIPD.geos5.2x25.nc
HEMCO: Opening /fsx/HEMCO/GMI/v2015-02/gmi.clim.OH.geos5.2x25.nc
HEMCO: Opening /fsx/HEMCO/NOAA_GMD/v2018-01/monthly.gridded.surface.methane.1979-2020.1x1.nc
HEMCO: Opening /fsx/HEMCO/GEIA/v2014-07/GEIA_monthscal.generic.1x1.nc
HEMCO: Opening /fsx/HEMCO/EMEP/v2015-03/EMEP.Seasonal.geos.1x1.nc
HEMCO: Opening /fsx/HEMCO/BROMINE/v2015-02/BromoCarb_Season.nc
HEMCO: Opening /fsx/HEMCO/EDGARv43/v2016-11/EDGAR_v43.Seasonal.1x1.nc
HEMCO: Opening /fsx/HEMCO/NEI2005/v2014-09/scaling/NEI99.dow.geos.1x1.nc
HEMCO: Opening /fsx/HEMCO/VOLCANO/v2015-02/2009/volc_so2_gen.1x1.47L.200901.nc
HEMCO: Opening /fsx/HEMCO/SOILNOX/v2014-07/soilNOx.fert_res.generic.05x05.nc
 vdinti: pbl height will be limited to bottom           25  model levels. top is
     431.250100000000       hpa
 =================================================
 W R F - G C   T I M E R S
    Domain           1 (Units: s)
 =================================================
  => Coupler Component                       0.055
   -- Physics & Parameterization             0.010
   -- Diagnostics Out                        0.000
  => GEOS-Chem Column                      151.135
  ===> Total Chemistry                     151.191
  => WRF                                    17.527
  ===> Total WRF-GC                        168.718
 max optd  1.9364301E+31
 max taucldi  2.3295556E-08
 max taucldw  2.3134625E-08
 Switching is not necessary as we are already
 in the right domain!
 GIGC_Chunk_Run: Running for in-PET grid #           1
 GIGC_Chunk_Run: Received new grid IM, JM, LM =          15           9
          49
 =================================================
 W R F - G C   T I M E R S
    Domain           1 (Units: s)
 =================================================
  => Coupler Component                       0.090
   -- Physics & Parameterization             0.020
   -- Diagnostics Out                        0.000
  => GEOS-Chem Column                      152.247
  ===> Total Chemistry                     152.337
  => WRF                                    39.986
  ===> Total WRF-GC                        192.323
 max optd  1.9364301E+31
 max taucldi  4.5676810E-08
 max taucldw  4.5245514E-08
 Switching is not necessary as we are already
 in the right domain!
 GIGC_Chunk_Run: Running for in-PET grid #           1
 GIGC_Chunk_Run: Received new grid IM, JM, LM =          15           9
          49
 =================================================
 W R F - G C   T I M E R S
    Domain           1 (Units: s)
 =================================================
  => Coupler Component                       0.123
   -- Physics & Parameterization             0.030
   -- Diagnostics Out                        0.000
  => GEOS-Chem Column                      153.292
  ===> Total Chemistry                     153.415
  => WRF                                    60.712
  ===> Total WRF-GC                        214.127
 max optd  1.9364301E+31
 max taucldi  6.6156289E-08
 max taucldw  6.5355266E-08
 Switching is not necessary as we are already
 in the right domain!
 GIGC_Chunk_Run: Running for in-PET grid #           1
 GIGC_Chunk_Run: Received new grid IM, JM, LM =          15           9
          49
 =================================================
 W R F - G C   T I M E R S
    Domain           1 (Units: s)
 =================================================
  => Coupler Component                       0.155
   -- Physics & Parameterization             0.040
   -- Diagnostics Out                        0.000
  => GEOS-Chem Column                      154.336
  ===> Total Chemistry                     154.491
  => WRF                                    79.773
  ===> Total WRF-GC                        234.264
 max optd  1.9364301E+31
 max taucldi  8.9448356E-08
 max taucldw  8.8137732E-08
 Switching is not necessary as we are already
 in the right domain!
 GIGC_Chunk_Run: Running for in-PET grid #           1
 GIGC_Chunk_Run: Received new grid IM, JM, LM =          15           9
          49
 =================================================
 W R F - G C   T I M E R S
    Domain           1 (Units: s)
 =================================================
  => Coupler Component                       0.187
   -- Physics & Parameterization             0.049
   -- Diagnostics Out                        0.000
  => GEOS-Chem Column                      155.377
  ===> Total Chemistry                     155.565
  => WRF                                    98.358
  ===> Total WRF-GC                        253.922
 max optd  1.9364301E+31
 max taucldi  1.1326803E-07
 max taucldw  1.1132539E-07
 Switching is not necessary as we are already
 in the right domain!
 GIGC_Chunk_Run: Running for in-PET grid #           1
 GIGC_Chunk_Run: Received new grid IM, JM, LM =          15           9
          49
 =================================================
 W R F - G C   T I M E R S
    Domain           1 (Units: s)
 =================================================
  => Coupler Component                       0.220
   -- Physics & Parameterization             0.059
   -- Diagnostics Out                        0.000
  => GEOS-Chem Column                      156.414
  ===> Total Chemistry                     156.635
  => WRF                                   116.826
  ===> Total WRF-GC                        273.461
 max optd  1.9364301E+31
 max taucldi  1.3628225E-07
 max taucldw  1.3361101E-07
 Switching is not necessary as we are already
 in the right domain!
 GIGC_Chunk_Run: Running for in-PET grid #           1
 GIGC_Chunk_Run: Received new grid IM, JM, LM =          15           9
          49
 =================================================
 W R F - G C   T I M E R S
    Domain           1 (Units: s)
 =================================================
  => Coupler Component                       0.253
   -- Physics & Parameterization             0.068
   -- Diagnostics Out                        0.000
  => GEOS-Chem Column                      157.448
  ===> Total Chemistry                     157.701
  => WRF                                   135.294
  ===> Total WRF-GC                        292.995
 max optd  1.9364301E+31
 max taucldi  1.5763446E-07
 max taucldw  1.5417113E-07
 Switching is not necessary as we are already
 in the right domain!
 GIGC_Chunk_Run: Running for in-PET grid #           1
 GIGC_Chunk_Run: Received new grid IM, JM, LM =          15           9
          49
 =================================================
 W R F - G C   T I M E R S
    Domain           1 (Units: s)
 =================================================
  => Coupler Component                       0.288
   -- Physics & Parameterization             0.077
   -- Diagnostics Out                        0.000
  => GEOS-Chem Column                      158.476
  ===> Total Chemistry                     158.763
  => WRF                                   153.685
  ===> Total WRF-GC                        312.449
 max optd  1.9364301E+31
 max taucldi  1.7730216E-07
 max taucldw  1.7572576E-07
 Switching is not necessary as we are already
 in the right domain!
 GIGC_Chunk_Run: Running for in-PET grid #           1
 GIGC_Chunk_Run: Received new grid IM, JM, LM =          15           9
          49
 =================================================
 W R F - G C   T I M E R S
    Domain           1 (Units: s)
 =================================================
  => Coupler Component                       0.323
   -- Physics & Parameterization             0.087
   -- Diagnostics Out                        0.000
  => GEOS-Chem Column                      159.509
  ===> Total Chemistry                     159.833
  => WRF                                   172.094
  ===> Total WRF-GC                        331.927
 max optd  1.9364301E+31
 max taucldi  2.0005258E-07
 max taucldw  2.0291218E-07
 Switching is not necessary as we are already
 in the right domain!
 GIGC_Chunk_Run: Running for in-PET grid #           1
 GIGC_Chunk_Run: Received new grid IM, JM, LM =          15           9
          49
 =================================================
 W R F - G C   T I M E R S
    Domain           1 (Units: s)
 =================================================
  => Coupler Component                       0.360
   -- Physics & Parameterization             0.097
   -- Diagnostics Out                        0.000
  => GEOS-Chem Column                      160.553
  ===> Total Chemistry                     160.912
  => WRF                                   190.537
  ===> Total WRF-GC                        351.450
 max optd  1.9364301E+31
 max taucldi  2.1955265E-07
 max taucldw  2.2572955E-07
 Switching is not necessary as we are already
 in the right domain!
 GIGC_Chunk_Run: Running for in-PET grid #           1
 GIGC_Chunk_Run: Received new grid IM, JM, LM =          15           9
          49
 =================================================
 W R F - G C   T I M E R S
    Domain           1 (Units: s)
 =================================================
  => Coupler Component                       0.400
   -- Physics & Parameterization             0.106
   -- Diagnostics Out                        0.000
  => GEOS-Chem Column                      161.574
  ===> Total Chemistry                     161.974
  => WRF                                   208.917
  ===> Total WRF-GC                        370.891
 max optd  1.9364301E+31
 max taucldi  2.3264464E-07
 max taucldw  2.3957958E-07
 Switching is not necessary as we are already
 in the right domain!
 GIGC_Chunk_Run: Running for in-PET grid #           1
 GIGC_Chunk_Run: Received new grid IM, JM, LM =          15           9
          49
 =================================================
 W R F - G C   T I M E R S
    Domain           1 (Units: s)
 =================================================
  => Coupler Component                       0.436
   -- Physics & Parameterization             0.115
   -- Diagnostics Out                        0.000
  => GEOS-Chem Column                      162.614
  ===> Total Chemistry                     163.050
  => WRF                                   227.184
  ===> Total WRF-GC                        390.234
 HOURLY EMISSIONS UPDATE TIME     3600.0       0.0
mediation_integrate: med_read_wrf_chem_emissions: Read emissions for time 2018-01-01_01:00:00
 max optd  1.9364301E+31
 max taucldi  2.4195779E-07
 max taucldw  2.4082917E-07
 Switching is not necessary as we are already
 in the right domain!
 GIGC_Chunk_Run: Running for in-PET grid #           1
 GIGC_Chunk_Run: Received new grid IM, JM, LM =          15           9
          49
 =================================================
 W R F - G C   T I M E R S
    Domain           1 (Units: s)
 =================================================
  => Coupler Component                       0.474
   -- Physics & Parameterization             0.125
   -- Diagnostics Out                        0.000
  => GEOS-Chem Column                      163.649
  ===> Total Chemistry                     164.123
  => WRF                                   245.511
  ===> Total WRF-GC                        409.634
 max optd  1.9364301E+31
 max taucldi  2.5794716E-07
 max taucldw  2.4838687E-07
 Switching is not necessary as we are already
 in the right domain!
 GIGC_Chunk_Run: Running for in-PET grid #           1
 GIGC_Chunk_Run: Received new grid IM, JM, LM =          15           9
          49
 =================================================
 W R F - G C   T I M E R S
    Domain           1 (Units: s)
 =================================================
  => Coupler Component                       0.516
   -- Physics & Parameterization             0.134
   -- Diagnostics Out                        0.000
  => GEOS-Chem Column                      164.678
  ===> Total Chemistry                     165.194
  => WRF                                   263.837
  ===> Total WRF-GC                        429.031
 max optd  1.9364301E+31
 max taucldi  2.6398340E-07
 max taucldw  2.5369479E-07
 Switching is not necessary as we are already
 in the right domain!
 GIGC_Chunk_Run: Running for in-PET grid #           1
 GIGC_Chunk_Run: Received new grid IM, JM, LM =          15           9
          49
 =================================================
 W R F - G C   T I M E R S
    Domain           1 (Units: s)
 =================================================
  => Coupler Component                       0.558
   -- Physics & Parameterization             0.144
   -- Diagnostics Out                        0.000
  => GEOS-Chem Column                      165.717
  ===> Total Chemistry                     166.275
  => WRF                                   282.055
  ===> Total WRF-GC                        448.330
 max optd  1.9364301E+31
 max taucldi  2.6789778E-07
 max taucldw  2.5668928E-07
 Switching is not necessary as we are already
 in the right domain!
 GIGC_Chunk_Run: Running for in-PET grid #           1
 GIGC_Chunk_Run: Received new grid IM, JM, LM =          15           9
          49
 =================================================
 W R F - G C   T I M E R S
    Domain           1 (Units: s)
 =================================================
  => Coupler Component                       0.600
   -- Physics & Parameterization             0.154
   -- Diagnostics Out                        0.000
  => GEOS-Chem Column                      166.767
  ===> Total Chemistry                     167.368
  => WRF                                   300.335
  ===> Total WRF-GC                        467.703
 max optd  1.9364301E+31
 max taucldi  2.3312343E-02
 max taucldw  2.6658739E-07
 Switching is not necessary as we are already
 in the right domain!
 GIGC_Chunk_Run: Running for in-PET grid #           1
 GIGC_Chunk_Run: Received new grid IM, JM, LM =          15           9
          49
 =================================================
 W R F - G C   T I M E R S
    Domain           1 (Units: s)
 =================================================
  => Coupler Component                       0.644
   -- Physics & Parameterization             0.163
   -- Diagnostics Out                        0.000
  => GEOS-Chem Column                      167.811
  ===> Total Chemistry                     168.455
  => WRF                                   318.568
  ===> Total WRF-GC                        487.022
 max optd  1.9364301E+31
 max taucldi  3.1644657E-02
 max taucldw  2.8708379E-07
 Switching is not necessary as we are already
 in the right domain!
 GIGC_Chunk_Run: Running for in-PET grid #           1
 GIGC_Chunk_Run: Received new grid IM, JM, LM =          15           9
          49
 =================================================
 W R F - G C   T I M E R S
    Domain           1 (Units: s)
 =================================================
  => Coupler Component                       0.687
   -- Physics & Parameterization             0.172
   -- Diagnostics Out                        0.000
  => GEOS-Chem Column                      168.862
  ===> Total Chemistry                     169.549
  => WRF                                   336.766
  ===> Total WRF-GC                        506.315
 max optd  1.9364301E+31
 max taucldi  4.4773344E-02
 max taucldw  3.0312654E-07
 Switching is not necessary as we are already
 in the right domain!
 GIGC_Chunk_Run: Running for in-PET grid #           1
 GIGC_Chunk_Run: Received new grid IM, JM, LM =          15           9
          49
 =================================================
 W R F - G C   T I M E R S
    Domain           1 (Units: s)
 =================================================
  => Coupler Component                       0.732
   -- Physics & Parameterization             0.182
   -- Diagnostics Out                        0.000
  => GEOS-Chem Column                      169.905
  ===> Total Chemistry                     170.637
  => WRF                                   355.010
  ===> Total WRF-GC                        525.647
 max optd  1.9364301E+31
 max taucldi  4.4115938E-02
 max taucldw  3.1765799E-07
 Switching is not necessary as we are already
 in the right domain!
 GIGC_Chunk_Run: Running for in-PET grid #           1
 GIGC_Chunk_Run: Received new grid IM, JM, LM =          15           9
          49
 =================================================
 W R F - G C   T I M E R S
    Domain           1 (Units: s)
 =================================================
  => Coupler Component                       0.778
   -- Physics & Parameterization             0.191
   -- Diagnostics Out                        0.000
  => GEOS-Chem Column                      170.930
  ===> Total Chemistry                     171.708
  => WRF                                   373.366
  ===> Total WRF-GC                        545.073
 max optd  1.9364301E+31
 max taucldi  4.3431420E-02
 max taucldw  3.2574064E-07
 Switching is not necessary as we are already
 in the right domain!
 GIGC_Chunk_Run: Running for in-PET grid #           1
 GIGC_Chunk_Run: Received new grid IM, JM, LM =          15           9
          49
 =================================================
 W R F - G C   T I M E R S
    Domain           1 (Units: s)
 =================================================
  => Coupler Component                       0.823
   -- Physics & Parameterization             0.201
   -- Diagnostics Out                        0.000
  => GEOS-Chem Column                      171.971
  ===> Total Chemistry                     172.794
  => WRF                                   391.488
  ===> Total WRF-GC                        564.282
 max optd  1.9364301E+31
 max taucldi  3.7968818E-02
 max taucldw  3.2997684E-07
 Switching is not necessary as we are already
 in the right domain!
 GIGC_Chunk_Run: Running for in-PET grid #           1
 GIGC_Chunk_Run: Received new grid IM, JM, LM =          15           9
          49
 =================================================
 W R F - G C   T I M E R S
    Domain           1 (Units: s)
 =================================================
  => Coupler Component                       0.869
   -- Physics & Parameterization             0.210
   -- Diagnostics Out                        0.000
  => GEOS-Chem Column                      173.023
  ===> Total Chemistry                     173.892
  => WRF                                   409.674
  ===> Total WRF-GC                        583.566
 max optd  1.9364301E+31
 max taucldi  3.2789417E-02
 max taucldw  3.3292690E-07
 Switching is not necessary as we are already
 in the right domain!
 GIGC_Chunk_Run: Running for in-PET grid #           1
 GIGC_Chunk_Run: Received new grid IM, JM, LM =          15           9
          49
 =================================================
 W R F - G C   T I M E R S
    Domain           1 (Units: s)
 =================================================
  => Coupler Component                       0.913
   -- Physics & Parameterization             0.220
   -- Diagnostics Out                        0.000
  => GEOS-Chem Column                      174.070
  ===> Total Chemistry                     174.983
  => WRF                                   427.957
  ===> Total WRF-GC                        602.940
 max optd  1.9364301E+31
 max taucldi  3.5581455E-02
 max taucldw  3.5287513E-07
 Switching is not necessary as we are already
 in the right domain!
 GIGC_Chunk_Run: Running for in-PET grid #           1
 GIGC_Chunk_Run: Received new grid IM, JM, LM =          15           9
          49
 =================================================
 W R F - G C   T I M E R S
    Domain           1 (Units: s)
 =================================================
  => Coupler Component                       0.956
   -- Physics & Parameterization             0.229
   -- Diagnostics Out                        0.000
  => GEOS-Chem Column                      175.120
  ===> Total Chemistry                     176.076
  => WRF                                   446.134
  ===> Total WRF-GC                        622.211
 HOURLY EMISSIONS UPDATE TIME     7200.0       0.0
mediation_integrate: med_read_wrf_chem_emissions: Read emissions for time 2018-01-01_02:00:00
 max optd  1.9364301E+31
 max taucldi  4.0589303E-02
 max taucldw  3.7066988E-07
 Switching is not necessary as we are already
 in the right domain!
 GIGC_Chunk_Run: Running for in-PET grid #           1
 GIGC_Chunk_Run: Received new grid IM, JM, LM =          15           9
          49
 =================================================
 W R F - G C   T I M E R S
    Domain           1 (Units: s)
 =================================================
  => Coupler Component                       1.002
   -- Physics & Parameterization             0.238
   -- Diagnostics Out                        0.000
  => GEOS-Chem Column                      176.168
  ===> Total Chemistry                     177.169
  => WRF                                   464.336
  ===> Total WRF-GC                        641.505
 max optd  1.9364301E+31
 max taucldi  4.1659992E-02
 max taucldw  3.8392483E-07
 Switching is not necessary as we are already
 in the right domain!
 GIGC_Chunk_Run: Running for in-PET grid #           1
 GIGC_Chunk_Run: Received new grid IM, JM, LM =          15           9
          49
 =================================================
 W R F - G C   T I M E R S
    Domain           1 (Units: s)
 =================================================
  => Coupler Component                       1.045
   -- Physics & Parameterization             0.248
   -- Diagnostics Out                        0.000
  => GEOS-Chem Column                      177.227
  ===> Total Chemistry                     178.272
  => WRF                                   482.552
  ===> Total WRF-GC                        660.824
 max optd  1.9364301E+31
 max taucldi  4.1534819E-02
 max taucldw  3.9134588E-07
 Switching is not necessary as we are already
 in the right domain!
 GIGC_Chunk_Run: Running for in-PET grid #           1
 GIGC_Chunk_Run: Received new grid IM, JM, LM =          15           9
          49
 =================================================
 W R F - G C   T I M E R S
    Domain           1 (Units: s)
 =================================================
  => Coupler Component                       1.090
   -- Physics & Parameterization             0.257
   -- Diagnostics Out                        0.000
  => GEOS-Chem Column                      178.268
  ===> Total Chemistry                     179.357
  => WRF                                   500.654
  ===> Total WRF-GC                        680.011
 max optd  1.9364301E+31
 max taucldi  3.4490794E-02
 max taucldw  3.9230656E-07
 Switching is not necessary as we are already
 in the right domain!
 GIGC_Chunk_Run: Running for in-PET grid #           1
 GIGC_Chunk_Run: Received new grid IM, JM, LM =          15           9
          49
 =================================================
 W R F - G C   T I M E R S
    Domain           1 (Units: s)
 =================================================
  => Coupler Component                       1.134
   -- Physics & Parameterization             0.267
   -- Diagnostics Out                        0.000
  => GEOS-Chem Column                      179.322
  ===> Total Chemistry                     180.456
  => WRF                                   518.777
  ===> Total WRF-GC                        699.233
 max optd  1.9364301E+31
 max taucldi  5.4119401E-02
 max taucldw  3.8680443E-07
 Switching is not necessary as we are already
 in the right domain!
 GIGC_Chunk_Run: Running for in-PET grid #           1
 GIGC_Chunk_Run: Received new grid IM, JM, LM =          15           9
          49
 =================================================
 W R F - G C   T I M E R S
    Domain           1 (Units: s)
 =================================================
  => Coupler Component                       1.181
   -- Physics & Parameterization             0.276
   -- Diagnostics Out                        0.000
  => GEOS-Chem Column                      180.361
  ===> Total Chemistry                     181.543
  => WRF                                   536.911
  ===> Total WRF-GC                        718.454
 max optd  1.9364301E+31
 max taucldi  5.6098197E-02
 max taucldw  3.7576254E-07
 Switching is not necessary as we are already
 in the right domain!
 GIGC_Chunk_Run: Running for in-PET grid #           1
 GIGC_Chunk_Run: Received new grid IM, JM, LM =          15           9
          49
 =================================================
 W R F - G C   T I M E R S
    Domain           1 (Units: s)
 =================================================
  => Coupler Component                       1.226
   -- Physics & Parameterization             0.286
   -- Diagnostics Out                        0.000
  => GEOS-Chem Column                      181.407
  ===> Total Chemistry                     182.633
  => WRF                                   555.055
  ===> Total WRF-GC                        737.688
 max optd  1.9364301E+31
 max taucldi  5.5285603E-02
 max taucldw  3.6000054E-07
 Switching is not necessary as we are already
 in the right domain!
 GIGC_Chunk_Run: Running for in-PET grid #           1
 GIGC_Chunk_Run: Received new grid IM, JM, LM =          15           9
          49
 =================================================
 W R F - G C   T I M E R S
    Domain           1 (Units: s)
 =================================================
  => Coupler Component                       1.271
   -- Physics & Parameterization             0.295
   -- Diagnostics Out                        0.000
  => GEOS-Chem Column                      182.434
  ===> Total Chemistry                     183.705
  => WRF                                   573.186
  ===> Total WRF-GC                        756.891
 max optd  1.9364301E+31
 max taucldi  5.7721753E-02
 max taucldw  3.4415473E-07
 Switching is not necessary as we are already
 in the right domain!
 GIGC_Chunk_Run: Running for in-PET grid #           1
 GIGC_Chunk_Run: Received new grid IM, JM, LM =          15           9
          49
 =================================================
 W R F - G C   T I M E R S
    Domain           1 (Units: s)
 =================================================
  => Coupler Component                       1.318
   -- Physics & Parameterization             0.305
   -- Diagnostics Out                        0.000
  => GEOS-Chem Column                      183.481
  ===> Total Chemistry                     184.798
  => WRF                                   591.301
  ===> Total WRF-GC                        776.099
 max optd  1.9364301E+31
 max taucldi  5.5652667E-02
 max taucldw  3.3516037E-07
 Switching is not necessary as we are already
 in the right domain!
 GIGC_Chunk_Run: Running for in-PET grid #           1
 GIGC_Chunk_Run: Received new grid IM, JM, LM =          15           9
          49
 =================================================
 W R F - G C   T I M E R S
    Domain           1 (Units: s)
 =================================================
  => Coupler Component                       1.363
   -- Physics & Parameterization             0.315
   -- Diagnostics Out                        0.000
  => GEOS-Chem Column                      184.505
  ===> Total Chemistry                     185.868
  => WRF                                   609.385
  ===> Total WRF-GC                        795.253
 max optd  1.9364301E+31
 max taucldi  6.6880189E-02
 max taucldw  3.2404870E-07
 Switching is not necessary as we are already
 in the right domain!
 GIGC_Chunk_Run: Running for in-PET grid #           1
 GIGC_Chunk_Run: Received new grid IM, JM, LM =          15           9
          49
 =================================================
 W R F - G C   T I M E R S
    Domain           1 (Units: s)
 =================================================
  => Coupler Component                       1.410
   -- Physics & Parameterization             0.325
   -- Diagnostics Out                        0.000
  => GEOS-Chem Column                      185.532
  ===> Total Chemistry                     186.942
  => WRF                                   627.564
  ===> Total WRF-GC                        814.506
 max optd  1.9364301E+31
 max taucldi  6.5263279E-02
 max taucldw  3.1147746E-07
 Switching is not necessary as we are already
 in the right domain!
 GIGC_Chunk_Run: Running for in-PET grid #           1
 GIGC_Chunk_Run: Received new grid IM, JM, LM =          15           9
          49
 =================================================
 W R F - G C   T I M E R S
    Domain           1 (Units: s)
 =================================================
  => Coupler Component                       1.457
   -- Physics & Parameterization             0.334
   -- Diagnostics Out                        0.000
  => GEOS-Chem Column                      186.576
  ===> Total Chemistry                     188.033
  => WRF                                   645.638
  ===> Total WRF-GC                        833.671
 max optd  1.9364301E+31
 max taucldi  5.4900177E-02
 max taucldw  2.9879584E-07
 Switching is not necessary as we are already
 in the right domain!
 GIGC_Chunk_Run: Running for in-PET grid #           1
 GIGC_Chunk_Run: Received new grid IM, JM, LM =          15           9
          49
 =================================================
 W R F - G C   T I M E R S
    Domain           1 (Units: s)
 =================================================
  => Coupler Component                       1.500
   -- Physics & Parameterization             0.344
   -- Diagnostics Out                        0.000
  => GEOS-Chem Column                      187.601
  ===> Total Chemistry                     189.102
  => WRF                                   663.712
  ===> Total WRF-GC                        852.813
 HOURLY EMISSIONS UPDATE TIME    10800.0       0.0
mediation_integrate: med_read_wrf_chem_emissions: Read emissions for time 2018-01-01_03:00:00
 max optd  1.9364301E+31
 max taucldi  4.6003006E-02
 max taucldw  2.9087010E-07
 Switching is not necessary as we are already
 in the right domain!
 GIGC_Chunk_Run: Running for in-PET grid #           1
 GIGC_Chunk_Run: Received new grid IM, JM, LM =          15           9
          49
 =================================================
 W R F - G C   T I M E R S
    Domain           1 (Units: s)
 =================================================
  => Coupler Component                       1.545
   -- Physics & Parameterization             0.354
   -- Diagnostics Out                        0.000
  => GEOS-Chem Column                      188.630
  ===> Total Chemistry                     190.174
  => WRF                                   681.869
  ===> Total WRF-GC                        872.043
 max optd  1.9364301E+31
 max taucldi  4.1308749E-02
 max taucldw  3.0146074E-07
 Switching is not necessary as we are already
 in the right domain!
 GIGC_Chunk_Run: Running for in-PET grid #           1
 GIGC_Chunk_Run: Received new grid IM, JM, LM =          15           9
          49
 =================================================
 W R F - G C   T I M E R S
    Domain           1 (Units: s)
 =================================================
  => Coupler Component                       1.585
   -- Physics & Parameterization             0.363
   -- Diagnostics Out                        0.000
  => GEOS-Chem Column                      189.650
  ===> Total Chemistry                     191.235
  => WRF                                   699.975
  ===> Total WRF-GC                        891.210
 max optd  1.9364301E+31
 max taucldi  4.0352434E-02
 max taucldw  3.1229752E-07
 Switching is not necessary as we are already
 in the right domain!
 GIGC_Chunk_Run: Running for in-PET grid #           1
 GIGC_Chunk_Run: Received new grid IM, JM, LM =          15           9
          49
 =================================================
 W R F - G C   T I M E R S
    Domain           1 (Units: s)
 =================================================
  => Coupler Component                       1.631
   -- Physics & Parameterization             0.373
   -- Diagnostics Out                        0.000
  => GEOS-Chem Column                      190.684
  ===> Total Chemistry                     192.316
  => WRF                                   718.097
  ===> Total WRF-GC                        910.413
 max optd  1.9364301E+31
 max taucldi  3.1500060E-02
 max taucldw  3.2336635E-07
 Switching is not necessary as we are already
 in the right domain!
 GIGC_Chunk_Run: Running for in-PET grid #           1
 GIGC_Chunk_Run: Received new grid IM, JM, LM =          15           9
          49
 =================================================
 W R F - G C   T I M E R S
    Domain           1 (Units: s)
 =================================================
  => Coupler Component                       1.677
   -- Physics & Parameterization             0.383
   -- Diagnostics Out                        0.000
  => GEOS-Chem Column                      191.736
  ===> Total Chemistry                     193.413
  => WRF                                   736.210
  ===> Total WRF-GC                        929.624
 max optd  1.9364301E+31
 max taucldi  1.9697607E-02
 max taucldw  3.3476493E-07
 Switching is not necessary as we are already
 in the right domain!
 GIGC_Chunk_Run: Running for in-PET grid #           1
 GIGC_Chunk_Run: Received new grid IM, JM, LM =          15           9
          49
 =================================================
 W R F - G C   T I M E R S
    Domain           1 (Units: s)
 =================================================
  => Coupler Component                       1.721
   -- Physics & Parameterization             0.393
   -- Diagnostics Out                        0.000
  => GEOS-Chem Column                      192.790
  ===> Total Chemistry                     194.511
  => WRF                                   754.270
  ===> Total WRF-GC                        948.781
 max optd  1.9364301E+31
 max taucldi  1.2977426E-02
 max taucldw  3.4584016E-07
 Switching is not necessary as we are already
 in the right domain!
 GIGC_Chunk_Run: Running for in-PET grid #           1
 GIGC_Chunk_Run: Received new grid IM, JM, LM =          15           9
          49
 =================================================
 W R F - G C   T I M E R S
    Domain           1 (Units: s)
 =================================================
  => Coupler Component                       1.768
   -- Physics & Parameterization             0.403
   -- Diagnostics Out                        0.000
  => GEOS-Chem Column                      193.827
  ===> Total Chemistry                     195.595
  => WRF                                   772.610
  ===> Total WRF-GC                        968.205
 max optd  1.9364301E+31
 max taucldi  7.5656362E-03
 max taucldw  3.5623376E-07
 Switching is not necessary as we are already
 in the right domain!
 GIGC_Chunk_Run: Running for in-PET grid #           1
 GIGC_Chunk_Run: Received new grid IM, JM, LM =          15           9
          49
 =================================================
 W R F - G C   T I M E R S
    Domain           1 (Units: s)
 =================================================
  => Coupler Component                       1.813
   -- Physics & Parameterization             0.412
   -- Diagnostics Out                        0.000
  => GEOS-Chem Column                      194.889
  ===> Total Chemistry                     196.701
  => WRF                                   790.793
  ===> Total WRF-GC                        987.494
 max optd  1.9364301E+31
 max taucldi  3.6500928E-03
 max taucldw  3.6621645E-07
 Switching is not necessary as we are already
 in the right domain!
 GIGC_Chunk_Run: Running for in-PET grid #           1
 GIGC_Chunk_Run: Received new grid IM, JM, LM =          15           9
          49
 =================================================
 W R F - G C   T I M E R S
    Domain           1 (Units: s)
 =================================================
  => Coupler Component                       1.859
   -- Physics & Parameterization             0.421
   -- Diagnostics Out                        0.000
  => GEOS-Chem Column                      195.930
  ===> Total Chemistry                     197.789
  => WRF                                   808.798
  ===> Total WRF-GC                       1006.586
 max optd  1.9364301E+31
 max taucldi  2.9262472E-03
 max taucldw  3.7566105E-07
 Switching is not necessary as we are already
 in the right domain!
 GIGC_Chunk_Run: Running for in-PET grid #           1
 GIGC_Chunk_Run: Received new grid IM, JM, LM =          15           9
          49
 =================================================
 W R F - G C   T I M E R S
    Domain           1 (Units: s)
 =================================================
  => Coupler Component                       1.905
   -- Physics & Parameterization             0.431
   -- Diagnostics Out                        0.000
  => GEOS-Chem Column                      196.971
  ===> Total Chemistry                     198.876
  => WRF                                   827.031
  ===> Total WRF-GC                       1025.907
 max optd  1.9364301E+31
 max taucldi  2.2352771E-03
 max taucldw  3.8410923E-07
 Switching is not necessary as we are already
 in the right domain!
 GIGC_Chunk_Run: Running for in-PET grid #           1
 GIGC_Chunk_Run: Received new grid IM, JM, LM =          15           9
          49
 =================================================
 W R F - G C   T I M E R S
    Domain           1 (Units: s)
 =================================================
  => Coupler Component                       1.953
   -- Physics & Parameterization             0.441
   -- Diagnostics Out                        0.000
  => GEOS-Chem Column                      198.016
  ===> Total Chemistry                     199.969
  => WRF                                   845.179
  ===> Total WRF-GC                       1045.147
 max optd  1.9364301E+31
 max taucldi  1.4739910E-03
 max taucldw  3.9156765E-07
 Switching is not necessary as we are already
 in the right domain!
 GIGC_Chunk_Run: Running for in-PET grid #           1
 GIGC_Chunk_Run: Received new grid IM, JM, LM =          15           9
          49
 =================================================
 W R F - G C   T I M E R S
    Domain           1 (Units: s)
 =================================================
  => Coupler Component                       1.999
   -- Physics & Parameterization             0.450
   -- Diagnostics Out                        0.000
  => GEOS-Chem Column                      199.063
  ===> Total Chemistry                     201.062
  => WRF                                   863.268
  ===> Total WRF-GC                       1064.330
 max optd  1.9364301E+31
 max taucldi  8.2111207E-04
 max taucldw  3.9801745E-07
 Switching is not necessary as we are already
 in the right domain!
 GIGC_Chunk_Run: Running for in-PET grid #           1
 GIGC_Chunk_Run: Received new grid IM, JM, LM =          15           9
          49
 =================================================
 W R F - G C   T I M E R S
    Domain           1 (Units: s)
 =================================================
  => Coupler Component                       2.046
   -- Physics & Parameterization             0.460
   -- Diagnostics Out                        0.000
  => GEOS-Chem Column                      200.104
  ===> Total Chemistry                     202.150
  => WRF                                   881.420
  ===> Total WRF-GC                       1083.570
 HOURLY EMISSIONS UPDATE TIME    14400.0       0.0
mediation_integrate: med_read_wrf_chem_emissions: Read emissions for time 2018-01-01_04:00:00
 max optd  1.9364301E+31
 max taucldi  4.0413439E-04
 max taucldw  4.0321609E-07
 Switching is not necessary as we are already
 in the right domain!
 GIGC_Chunk_Run: Running for in-PET grid #           1
 GIGC_Chunk_Run: Received new grid IM, JM, LM =          15           9
          49
 =================================================
 W R F - G C   T I M E R S
    Domain           1 (Units: s)
 =================================================
  => Coupler Component                       2.091
   -- Physics & Parameterization             0.469
   -- Diagnostics Out                        0.000
  => GEOS-Chem Column                      201.152
  ===> Total Chemistry                     203.243
  => WRF                                   899.555
  ===> Total WRF-GC                       1102.798
 max optd  1.9364301E+31
 max taucldi  1.4261471E-04
 max taucldw  4.0808831E-07
 Switching is not necessary as we are already
 in the right domain!
 GIGC_Chunk_Run: Running for in-PET grid #           1
 GIGC_Chunk_Run: Received new grid IM, JM, LM =          15           9
          49
 =================================================
 W R F - G C   T I M E R S
    Domain           1 (Units: s)
 =================================================
  => Coupler Component                       2.135
   -- Physics & Parameterization             0.479
   -- Diagnostics Out                        0.000
  => GEOS-Chem Column                      202.192
  ===> Total Chemistry                     204.326
  => WRF                                   917.694
  ===> Total WRF-GC                       1122.020
 max optd  1.9364301E+31
 max taucldi  1.0753166E-05
 max taucldw  4.1138080E-07
 Switching is not necessary as we are already
 in the right domain!
 GIGC_Chunk_Run: Running for in-PET grid #           1
 GIGC_Chunk_Run: Received new grid IM, JM, LM =          15           9
          49
 =================================================
 W R F - G C   T I M E R S
    Domain           1 (Units: s)
 =================================================
  => Coupler Component                       2.182
   -- Physics & Parameterization             0.488
   -- Diagnostics Out                        0.000
  => GEOS-Chem Column                      203.240
  ===> Total Chemistry                     205.422
  => WRF                                   935.919
  ===> Total WRF-GC                       1141.341
 max optd  1.9364301E+31
 max taucldi  5.2951518E-06
 max taucldw  4.1244087E-07
 Switching is not necessary as we are already
 in the right domain!
 GIGC_Chunk_Run: Running for in-PET grid #           1
 GIGC_Chunk_Run: Received new grid IM, JM, LM =          15           9
          49
 =================================================
 W R F - G C   T I M E R S
    Domain           1 (Units: s)
 =================================================
  => Coupler Component                       2.226
   -- Physics & Parameterization             0.498
   -- Diagnostics Out                        0.000
  => GEOS-Chem Column                      204.285
  ===> Total Chemistry                     206.511
  => WRF                                   954.032
  ===> Total WRF-GC                       1160.543
 max optd  1.9364301E+31
 max taucldi  2.6158732E-06
 max taucldw  4.1192695E-07
 Switching is not necessary as we are already
 in the right domain!
 GIGC_Chunk_Run: Running for in-PET grid #           1
 GIGC_Chunk_Run: Received new grid IM, JM, LM =          15           9
          49
 =================================================
 W R F - G C   T I M E R S
    Domain           1 (Units: s)
 =================================================
  => Coupler Component                       2.268
   -- Physics & Parameterization             0.507
   -- Diagnostics Out                        0.000
  => GEOS-Chem Column                      205.323
  ===> Total Chemistry                     207.591
  => WRF                                   972.183
  ===> Total WRF-GC                       1179.774
 max optd  1.9364301E+31
 max taucldi  1.4512368E-06
 max taucldw  4.1650051E-07
 Switching is not necessary as we are already
 in the right domain!
 GIGC_Chunk_Run: Running for in-PET grid #           1
 GIGC_Chunk_Run: Received new grid IM, JM, LM =          15           9
          49
 =================================================
 W R F - G C   T I M E R S
    Domain           1 (Units: s)
 =================================================
  => Coupler Component                       2.314
   -- Physics & Parameterization             0.517
   -- Diagnostics Out                        0.000
  => GEOS-Chem Column                      206.356
  ===> Total Chemistry                     208.669
  => WRF                                   990.338
  ===> Total WRF-GC                       1199.008
 max optd  1.9364301E+31
 max taucldi  9.0527442E-07
 max taucldw  4.2400629E-07
 Switching is not necessary as we are already
 in the right domain!
 GIGC_Chunk_Run: Running for in-PET grid #           1
 GIGC_Chunk_Run: Received new grid IM, JM, LM =          15           9
          49
 =================================================
 W R F - G C   T I M E R S
    Domain           1 (Units: s)
 =================================================
  => Coupler Component                       2.359
   -- Physics & Parameterization             0.527
   -- Diagnostics Out                        0.000
  => GEOS-Chem Column                      207.403
  ===> Total Chemistry                     209.762
  => WRF                                  1008.544
  ===> Total WRF-GC                       1218.306
 max optd  1.9364301E+31
 max taucldi  4.5050749E-07
 max taucldw  4.3076076E-07
 Switching is not necessary as we are already
 in the right domain!
 GIGC_Chunk_Run: Running for in-PET grid #           1
 GIGC_Chunk_Run: Received new grid IM, JM, LM =          15           9
          49
 =================================================
 W R F - G C   T I M E R S
    Domain           1 (Units: s)
 =================================================
  => Coupler Component                       2.405
   -- Physics & Parameterization             0.536
   -- Diagnostics Out                        0.000
  => GEOS-Chem Column                      208.450
  ===> Total Chemistry                     210.854
  => WRF                                  1026.650
  ===> Total WRF-GC                       1237.504
 max optd  1.9364301E+31
 max taucldi  2.2709946E-07
 max taucldw  4.3645448E-07
 Switching is not necessary as we are already
 in the right domain!
 GIGC_Chunk_Run: Running for in-PET grid #           1
 GIGC_Chunk_Run: Received new grid IM, JM, LM =          15           9
          49
 =================================================
 W R F - G C   T I M E R S
    Domain           1 (Units: s)
 =================================================
  => Coupler Component                       2.450
   -- Physics & Parameterization             0.546
   -- Diagnostics Out                        0.000
  => GEOS-Chem Column                      209.488
  ===> Total Chemistry                     211.939
  => WRF                                  1044.792
  ===> Total WRF-GC                       1256.730
 max optd  1.9364301E+31
 max taucldi  2.2075129E-07
 max taucldw  4.4128512E-07
 Switching is not necessary as we are already
 in the right domain!
 GIGC_Chunk_Run: Running for in-PET grid #           1
 GIGC_Chunk_Run: Received new grid IM, JM, LM =          15           9
          49
 =================================================
 W R F - G C   T I M E R S
    Domain           1 (Units: s)
 =================================================
  => Coupler Component                       2.495
   -- Physics & Parameterization             0.555
   -- Diagnostics Out                        0.000
  => GEOS-Chem Column                      210.528
  ===> Total Chemistry                     213.023
  => WRF                                  1062.922
  ===> Total WRF-GC                       1275.945
 max optd  1.9364301E+31
 max taucldi  4.1614891E-07
 max taucldw  4.4508360E-07
 Switching is not necessary as we are already
 in the right domain!
 GIGC_Chunk_Run: Running for in-PET grid #           1
 GIGC_Chunk_Run: Received new grid IM, JM, LM =          15           9
          49
 =================================================
 W R F - G C   T I M E R S
    Domain           1 (Units: s)
 =================================================
  => Coupler Component                       2.541
   -- Physics & Parameterization             0.565
   -- Diagnostics Out                        0.000
  => GEOS-Chem Column                      211.578
  ===> Total Chemistry                     214.119
  => WRF                                  1081.020
  ===> Total WRF-GC                       1295.139
 max optd  1.9364301E+31
 max taucldi  7.4707310E-07
 max taucldw  4.4791116E-07
 Switching is not necessary as we are already
 in the right domain!
 GIGC_Chunk_Run: Running for in-PET grid #           1
 GIGC_Chunk_Run: Received new grid IM, JM, LM =          15           9
          49
 =================================================
 W R F - G C   T I M E R S
    Domain           1 (Units: s)
 =================================================
  => Coupler Component                       2.586
   -- Physics & Parameterization             0.574
   -- Diagnostics Out                        0.000
  => GEOS-Chem Column                      212.617
  ===> Total Chemistry                     215.203
  => WRF                                  1099.083
  ===> Total WRF-GC                       1314.286
 HOURLY EMISSIONS UPDATE TIME    18000.0       0.0
mediation_integrate: med_read_wrf_chem_emissions: Read emissions for time 2018-01-01_05:00:00
 max optd  1.9364301E+31
 max taucldi  1.2255609E-06
 max taucldw  4.4966359E-07
 Switching is not necessary as we are already
 in the right domain!
 GIGC_Chunk_Run: Running for in-PET grid #           1
 GIGC_Chunk_Run: Received new grid IM, JM, LM =          15           9
          49
 =================================================
 W R F - G C   T I M E R S
    Domain           1 (Units: s)
 =================================================
  => Coupler Component                       2.633
   -- Physics & Parameterization             0.584
   -- Diagnostics Out                        0.000
  => GEOS-Chem Column                      213.659
  ===> Total Chemistry                     216.292
  => WRF                                  1117.261
  ===> Total WRF-GC                       1333.553
 max optd  1.9364301E+31
 max taucldi  1.8071095E-06
 max taucldw  4.5044294E-07
 Switching is not necessary as we are already
 in the right domain!
 GIGC_Chunk_Run: Running for in-PET grid #           1
 GIGC_Chunk_Run: Received new grid IM, JM, LM =          15           9
          49
 =================================================
 W R F - G C   T I M E R S
    Domain           1 (Units: s)
 =================================================
  => Coupler Component                       2.676
   -- Physics & Parameterization             0.594
   -- Diagnostics Out                        0.000
  => GEOS-Chem Column                      214.699
  ===> Total Chemistry                     217.376
  => WRF                                  1135.355
  ===> Total WRF-GC                       1352.731
 max optd  1.9364301E+31
 max taucldi  2.4547239E-06
 max taucldw  4.5033983E-07
 Switching is not necessary as we are already
 in the right domain!
 GIGC_Chunk_Run: Running for in-PET grid #           1
 GIGC_Chunk_Run: Received new grid IM, JM, LM =          15           9
          49
 =================================================
 W R F - G C   T I M E R S
    Domain           1 (Units: s)
 =================================================
  => Coupler Component                       2.718
   -- Physics & Parameterization             0.603
   -- Diagnostics Out                        0.000
  => GEOS-Chem Column                      215.729
  ===> Total Chemistry                     218.448
  => WRF                                  1153.468
  ===> Total WRF-GC                       1371.916
 max optd  1.9364301E+31
 max taucldi  3.2813150E-06
 max taucldw  4.5000704E-07
 Switching is not necessary as we are already
 in the right domain!
 GIGC_Chunk_Run: Running for in-PET grid #           1
 GIGC_Chunk_Run: Received new grid IM, JM, LM =          15           9
          49
 =================================================
 W R F - G C   T I M E R S
    Domain           1 (Units: s)
 =================================================
  => Coupler Component                       2.765
   -- Physics & Parameterization             0.613
   -- Diagnostics Out                        0.000
  => GEOS-Chem Column                      216.776
  ===> Total Chemistry                     219.541
  => WRF                                  1171.625
  ===> Total WRF-GC                       1391.166
 max optd  1.9364301E+31
 max taucldi  4.0063023E-06
 max taucldw  4.4939227E-07
 Switching is not necessary as we are already
 in the right domain!
 GIGC_Chunk_Run: Running for in-PET grid #           1
 GIGC_Chunk_Run: Received new grid IM, JM, LM =          15           9
          49
 =================================================
 W R F - G C   T I M E R S
    Domain           1 (Units: s)
 =================================================
  => Coupler Component                       2.808
   -- Physics & Parameterization             0.623
   -- Diagnostics Out                        0.000
  => GEOS-Chem Column                      217.804
  ===> Total Chemistry                     220.612
  => WRF                                  1189.799
  ===> Total WRF-GC                       1410.410
 max optd  1.9364301E+31
 max taucldi  4.4480707E-06
 max taucldw  4.4836995E-07
 Switching is not necessary as we are already
 in the right domain!
 GIGC_Chunk_Run: Running for in-PET grid #           1
 GIGC_Chunk_Run: Received new grid IM, JM, LM =          15           9
          49
 =================================================
 W R F - G C   T I M E R S
    Domain           1 (Units: s)
 =================================================
  => Coupler Component                       2.851
   -- Physics & Parameterization             0.632
   -- Diagnostics Out                        0.000
  => GEOS-Chem Column                      218.843
  ===> Total Chemistry                     221.694
  => WRF                                  1207.908
  ===> Total WRF-GC                       1429.602
 max optd  1.9364301E+31
 max taucldi  4.5942802E-06
 max taucldw  4.4678418E-07
 Switching is not necessary as we are already
 in the right domain!
 GIGC_Chunk_Run: Running for in-PET grid #           1
 GIGC_Chunk_Run: Received new grid IM, JM, LM =          15           9
          49
 =================================================
 W R F - G C   T I M E R S
    Domain           1 (Units: s)
 =================================================
  => Coupler Component                       2.897
   -- Physics & Parameterization             0.642
   -- Diagnostics Out                        0.000
  => GEOS-Chem Column                      219.880
  ===> Total Chemistry                     222.777
  => WRF                                  1226.113
  ===> Total WRF-GC                       1448.890
 max optd  1.9364301E+31
 max taucldi  4.4885164E-06
 max taucldw  4.4485586E-07
 Switching is not necessary as we are already
 in the right domain!
 GIGC_Chunk_Run: Running for in-PET grid #           1
 GIGC_Chunk_Run: Received new grid IM, JM, LM =          15           9
          49
 =================================================
 W R F - G C   T I M E R S
    Domain           1 (Units: s)
 =================================================
  => Coupler Component                       2.943
   -- Physics & Parameterization             0.651
   -- Diagnostics Out                        0.000
  => GEOS-Chem Column                      220.922
  ===> Total Chemistry                     223.865
  => WRF                                  1244.226
  ===> Total WRF-GC                       1468.091
 max optd  1.9364301E+31
 max taucldi  4.5005568E-06
 max taucldw  4.4292605E-07
 Switching is not necessary as we are already
 in the right domain!
 GIGC_Chunk_Run: Running for in-PET grid #           1
 GIGC_Chunk_Run: Received new grid IM, JM, LM =          15           9
          49
 =================================================
 W R F - G C   T I M E R S
    Domain           1 (Units: s)
 =================================================
  => Coupler Component                       2.988
   -- Physics & Parameterization             0.661
   -- Diagnostics Out                        0.000
  => GEOS-Chem Column                      221.956
  ===> Total Chemistry                     224.944
  => WRF                                  1262.396
  ===> Total WRF-GC                       1487.340
 max optd  1.9364301E+31
 max taucldi  4.3778600E-06
 max taucldw  4.4067295E-07
 Switching is not necessary as we are already
 in the right domain!
 GIGC_Chunk_Run: Running for in-PET grid #           1
 GIGC_Chunk_Run: Received new grid IM, JM, LM =          15           9
          49
 =================================================
 W R F - G C   T I M E R S
    Domain           1 (Units: s)
 =================================================
  => Coupler Component                       3.033
   -- Physics & Parameterization             0.671
   -- Diagnostics Out                        0.000
  => GEOS-Chem Column                      223.004
  ===> Total Chemistry                     226.037
  => WRF                                  1280.813
  ===> Total WRF-GC                       1506.851
 max optd  1.9364301E+31
 max taucldi  4.1878138E-06
 max taucldw  4.4953418E-07
 Switching is not necessary as we are already
 in the right domain!
 GIGC_Chunk_Run: Running for in-PET grid #           1
 GIGC_Chunk_Run: Received new grid IM, JM, LM =          15           9
          49
 =================================================
 W R F - G C   T I M E R S
    Domain           1 (Units: s)
 =================================================
  => Coupler Component                       3.078
   -- Physics & Parameterization             0.681
   -- Diagnostics Out                        0.000
  => GEOS-Chem Column                      224.042
  ===> Total Chemistry                     227.120
  => WRF                                  1298.944
  ===> Total WRF-GC                       1526.065
 max optd  1.9364301E+31
 max taucldi  4.0181321E-06
 max taucldw  4.6046415E-07
 Switching is not necessary as we are already
 in the right domain!
 GIGC_Chunk_Run: Running for in-PET grid #           1
 GIGC_Chunk_Run: Received new grid IM, JM, LM =          15           9
          49
 =================================================
 W R F - G C   T I M E R S
    Domain           1 (Units: s)
 =================================================
  => Coupler Component                       3.121
   -- Physics & Parameterization             0.691
   -- Diagnostics Out                        0.000
  => GEOS-Chem Column                      225.081
  ===> Total Chemistry                     228.203
  => WRF                                  1317.073
  ===> Total WRF-GC                       1545.276
 HOURLY EMISSIONS UPDATE TIME    21600.0       0.0
mediation_integrate: med_read_wrf_chem_emissions: Read emissions for time 2018-01-01_06:00:00
 max optd  1.9364301E+31
 max taucldi  3.8934973E-06
 max taucldw  4.6935233E-07
 Switching is not necessary as we are already
 in the right domain!
 GIGC_Chunk_Run: Running for in-PET grid #           1
 GIGC_Chunk_Run: Received new grid IM, JM, LM =          15           9
          49
 =================================================
 W R F - G C   T I M E R S
    Domain           1 (Units: s)
 =================================================
  => Coupler Component                       3.165
   -- Physics & Parameterization             0.700
   -- Diagnostics Out                        0.000
  => GEOS-Chem Column                      226.122
  ===> Total Chemistry                     229.287
  => WRF                                  1775.759
  ===> Total WRF-GC                       2005.047
 max optd  1.9364301E+31
 max taucldi  3.8361682E-06
 max taucldw  4.7488896E-07
 Switching is not necessary as we are already
 in the right domain!
 GIGC_Chunk_Run: Running for in-PET grid #           1
 GIGC_Chunk_Run: Received new grid IM, JM, LM =          15           9
          49
 =================================================
 W R F - G C   T I M E R S
    Domain           1 (Units: s)
 =================================================
  => Coupler Component                       3.212
   -- Physics & Parameterization             0.709
   -- Diagnostics Out                        0.000
  => GEOS-Chem Column                      227.159
  ===> Total Chemistry                     230.371
  => WRF                                  1793.902
  ===> Total WRF-GC                       2024.273
 max optd  1.9364301E+31
 max taucldi  3.7887178E-06
 max taucldw  4.7659628E-07
 Switching is not necessary as we are already
 in the right domain!
 GIGC_Chunk_Run: Running for in-PET grid #           1
 GIGC_Chunk_Run: Received new grid IM, JM, LM =          15           9
          49
 =================================================
 W R F - G C   T I M E R S
    Domain           1 (Units: s)
 =================================================
  => Coupler Component                       3.251
   -- Physics & Parameterization             0.719
   -- Diagnostics Out                        0.000
  => GEOS-Chem Column                      228.187
  ===> Total Chemistry                     231.437
  => WRF                                  1812.189
  ===> Total WRF-GC                       2043.626
 max optd  1.9364301E+31
 max taucldi  3.3827522E-04
 max taucldw  4.7851591E-07
 Switching is not necessary as we are already
 in the right domain!
 GIGC_Chunk_Run: Running for in-PET grid #           1
 GIGC_Chunk_Run: Received new grid IM, JM, LM =          15           9
          49
 =================================================
 W R F - G C   T I M E R S
    Domain           1 (Units: s)
 =================================================
  => Coupler Component                       3.293
[...]
  => GEOS-Chem Column                      274.825
  ===> Total Chemistry                     280.073
  => WRF                                  2630.803
  ===> Total WRF-GC                       2910.876
 HOURLY EMISSIONS UPDATE TIME    36000.0       0.0
mediation_integrate: med_read_wrf_chem_emissions: Read emissions for time 2018-01-01_10:00:00
 max optd  1.9364301E+31
 max taucldi  1.9834293E-03
 max taucldw  7.9481140E-07
 Switching is not necessary as we are already
 in the right domain!
 GIGC_Chunk_Run: Running for in-PET grid #           1
 GIGC_Chunk_Run: Received new grid IM, JM, LM =          15           9
          49
 =================================================
 W R F - G C   T I M E R S
    Domain           1 (Units: s)
 =================================================
  => Coupler Component                       5.293
   -- Physics & Parameterization             1.156
   -- Diagnostics Out                        0.000
  => GEOS-Chem Column                      275.860
  ===> Total Chemistry                     281.153
  => WRF                                  2649.057
  ===> Total WRF-GC                       2930.210
 max optd  1.9364301E+31
 max taucldi  1.9907940E-03
 max taucldw  8.1238932E-07
 Switching is not necessary as we are already
 in the right domain!
 GIGC_Chunk_Run: Running for in-PET grid #           1
 GIGC_Chunk_Run: Received new grid IM, JM, LM =          15           9
          49
 =================================================
 W R F - G C   T I M E R S
    Domain           1 (Units: s)
 =================================================
  => Coupler Component                       5.338
   -- Physics & Parameterization             1.165
   -- Diagnostics Out                        0.000
  => GEOS-Chem Column                      276.897
  ===> Total Chemistry                     282.235
  => WRF                                  2667.223
  ===> Total WRF-GC                       2949.458
 max optd  1.9364301E+31
 max taucldi  1.9939914E-03
 max taucldw  8.2972548E-07
 Switching is not necessary as we are already
 in the right domain!
 GIGC_Chunk_Run: Running for in-PET grid #           1
 GIGC_Chunk_Run: Received new grid IM, JM, LM =          15           9
          49
 =================================================
 W R F - G C   T I M E R S
    Domain           1 (Units: s)
 =================================================
  => Coupler Component                       5.384
   -- Physics & Parameterization             1.175
   -- Diagnostics Out                        0.000
  => GEOS-Chem Column                      277.933
  ===> Total Chemistry                     283.317
  => WRF                                  2685.380
  ===> Total WRF-GC                       2968.697
 max optd  1.9364301E+31
 max taucldi  2.0824310E-03
 max taucldw  8.4695233E-07
 Switching is not necessary as we are already
 in the right domain!
 GIGC_Chunk_Run: Running for in-PET grid #           1
 GIGC_Chunk_Run: Received new grid IM, JM, LM =          15           9
          49
 =================================================
 W R F - G C   T I M E R S
    Domain           1 (Units: s)
 =================================================
  => Coupler Component                       5.428
   -- Physics & Parameterization             1.184
   -- Diagnostics Out                        0.000
  => GEOS-Chem Column                      278.976
  ===> Total Chemistry                     284.404
  => WRF                                  2703.625
  ===> Total WRF-GC                       2988.029
 max optd  1.9364301E+31
 max taucldi  2.2694438E-03
 max taucldw  8.6431203E-07
 Switching is not necessary as we are already
 in the right domain!
 GIGC_Chunk_Run: Running for in-PET grid #           1
 GIGC_Chunk_Run: Received new grid IM, JM, LM =          15           9
          49
 =================================================
 W R F - G C   T I M E R S
    Domain           1 (Units: s)
 =================================================
  => Coupler Component                       5.473
   -- Physics & Parameterization             1.193
   -- Diagnostics Out                        0.000
  => GEOS-Chem Column                      280.015
  ===> Total Chemistry                     285.488
  => WRF                                  2721.809
  ===> Total WRF-GC                       3007.297
 max optd  1.9364301E+31
 max taucldi  2.3858675E-03
 max taucldw  8.8160715E-07
 Switching is not necessary as we are already
 in the right domain!
 GIGC_Chunk_Run: Running for in-PET grid #           1
 GIGC_Chunk_Run: Received new grid IM, JM, LM =          15           9
          49
 =================================================
 W R F - G C   T I M E R S
    Domain           1 (Units: s)
 =================================================
  => Coupler Component                       5.517
   -- Physics & Parameterization             1.203
   -- Diagnostics Out                        0.000
  => GEOS-Chem Column                      281.058
  ===> Total Chemistry                     286.576
  => WRF                                  2739.919
  ===> Total WRF-GC                       3026.495
 max optd  1.9364301E+31
 max taucldi  2.4875738E-03
 max taucldw  8.9858372E-07
 Switching is not necessary as we are already
 in the right domain!
 GIGC_Chunk_Run: Running for in-PET grid #           1
 GIGC_Chunk_Run: Received new grid IM, JM, LM =          15           9
          49
 =================================================
 W R F - G C   T I M E R S
    Domain           1 (Units: s)
 =================================================
  => Coupler Component                       5.563
   -- Physics & Parameterization             1.212
   -- Diagnostics Out                        0.000
  => GEOS-Chem Column                      282.090
  ===> Total Chemistry                     287.653
  => WRF                                  2758.111
  ===> Total WRF-GC                       3045.765
 max optd  1.9364301E+31
 max taucldi  2.5513312E-03
 max taucldw  9.1520468E-07
 Switching is not necessary as we are already
 in the right domain!
 GIGC_Chunk_Run: Running for in-PET grid #           1
 GIGC_Chunk_Run: Received new grid IM, JM, LM =          15           9
          49
 =================================================
 W R F - G C   T I M E R S
    Domain           1 (Units: s)
 =================================================
  => Coupler Component                       5.609
   -- Physics & Parameterization             1.221
   -- Diagnostics Out                        0.000
  => GEOS-Chem Column                      283.133
  ===> Total Chemistry                     288.742
  => WRF                                  2776.290
  ===> Total WRF-GC                       3065.032
 max optd  1.9364301E+31
 max taucldi  2.5744613E-03
 max taucldw  9.3140915E-07
 Switching is not necessary as we are already
 in the right domain!
 GIGC_Chunk_Run: Running for in-PET grid #           1
 GIGC_Chunk_Run: Received new grid IM, JM, LM =          15           9
          49
 =================================================
 W R F - G C   T I M E R S
    Domain           1 (Units: s)
 =================================================
  => Coupler Component                       5.652
   -- Physics & Parameterization             1.231
   -- Diagnostics Out                        0.000
  => GEOS-Chem Column                      284.165
  ===> Total Chemistry                     289.817
  => WRF                                  2794.421
  ===> Total WRF-GC                       3084.238
 max optd  1.9364301E+31
 max taucldi  2.5637492E-03
 max taucldw  9.4695872E-07
 Switching is not necessary as we are already
 in the right domain!
 GIGC_Chunk_Run: Running for in-PET grid #           1
 GIGC_Chunk_Run: Received new grid IM, JM, LM =          15           9
          49
 =================================================
 W R F - G C   T I M E R S
    Domain           1 (Units: s)
 =================================================
  => Coupler Component                       5.698
   -- Physics & Parameterization             1.240
   -- Diagnostics Out                        0.000
  => GEOS-Chem Column                      285.207
  ===> Total Chemistry                     290.905
  => WRF                                  2812.665
  ===> Total WRF-GC                       3103.570
 max optd  1.9364301E+31
 max taucldi  2.5226213E-03
 max taucldw  9.6185192E-07
 Switching is not necessary as we are already
 in the right domain!
 GIGC_Chunk_Run: Running for in-PET grid #           1
 GIGC_Chunk_Run: Received new grid IM, JM, LM =          15           9
          49
 =================================================
 W R F - G C   T I M E R S
    Domain           1 (Units: s)
 =================================================
  => Coupler Component                       5.745
   -- Physics & Parameterization             1.249
   -- Diagnostics Out                        0.000
  => GEOS-Chem Column                      286.248
  ===> Total Chemistry                     291.993
  => WRF                                  2830.817
  ===> Total WRF-GC                       3122.810
 max optd  1.9364301E+31
 max taucldi  2.4599025E-03
 max taucldw  9.7566726E-07
 Switching is not necessary as we are already
 in the right domain!
 GIGC_Chunk_Run: Running for in-PET grid #           1
 GIGC_Chunk_Run: Received new grid IM, JM, LM =          15           9
          49
 =================================================
 W R F - G C   T I M E R S
    Domain           1 (Units: s)
 =================================================
  => Coupler Component                       5.790
   -- Physics & Parameterization             1.258
   -- Diagnostics Out                        0.000
  => GEOS-Chem Column                      287.292
  ===> Total Chemistry                     293.082
  => WRF                                  2849.023
  ===> Total WRF-GC                       3142.106
 HOURLY EMISSIONS UPDATE TIME    39600.0       0.0
mediation_integrate: med_read_wrf_chem_emissions: Read emissions for time 2018-01-01_11:00:00
 max optd  1.9364301E+31
 max taucldi  2.4658204E-03
 max taucldw  9.8778673E-07
 Switching is not necessary as we are already
 in the right domain!
 GIGC_Chunk_Run: Running for in-PET grid #           1
 GIGC_Chunk_Run: Received new grid IM, JM, LM =          15           9
          49
 =================================================
 W R F - G C   T I M E R S
    Domain           1 (Units: s)
 =================================================
  => Coupler Component                       5.835
   -- Physics & Parameterization             1.268
   -- Diagnostics Out                        0.000
  => GEOS-Chem Column                      288.331
  ===> Total Chemistry                     294.167
  => WRF                                  2867.214
  ===> Total WRF-GC                       3161.380
 max optd  1.9364301E+31
 max taucldi  2.4544434E-03
 max taucldw  9.9813246E-07
 Switching is not necessary as we are already
 in the right domain!
 GIGC_Chunk_Run: Running for in-PET grid #           1
 GIGC_Chunk_Run: Received new grid IM, JM, LM =          15           9
          49
 =================================================
 W R F - G C   T I M E R S
    Domain           1 (Units: s)
 =================================================
  => Coupler Component                       5.882
   -- Physics & Parameterization             1.277
   -- Diagnostics Out                        0.000
  => GEOS-Chem Column                      289.379
  ===> Total Chemistry                     295.261
  => WRF                                  2885.352
  ===> Total WRF-GC                       3180.613
 max optd  1.9364301E+31
 max taucldi  2.4146615E-03
 max taucldw  1.0069375E-06
 Switching is not necessary as we are already
 in the right domain!
 GIGC_Chunk_Run: Running for in-PET grid #           1
 GIGC_Chunk_Run: Received new grid IM, JM, LM =          15           9
          49
 =================================================
 W R F - G C   T I M E R S
    Domain           1 (Units: s)
 =================================================
  => Coupler Component                       5.928
   -- Physics & Parameterization             1.286
   -- Diagnostics Out                        0.000
  => GEOS-Chem Column                      290.420
  ===> Total Chemistry                     296.348
  => WRF                                  2903.592
  ===> Total WRF-GC                       3199.940
 max optd  1.9364301E+31
 max taucldi  2.3277544E-03
 max taucldw  1.0141982E-06
 Switching is not necessary as we are already
 in the right domain!
 GIGC_Chunk_Run: Running for in-PET grid #           1
 GIGC_Chunk_Run: Received new grid IM, JM, LM =          15           9
          49
 =================================================
 W R F - G C   T I M E R S
    Domain           1 (Units: s)
 =================================================
  => Coupler Component                       5.974
   -- Physics & Parameterization             1.296
   -- Diagnostics Out                        0.000
  => GEOS-Chem Column                      291.464
  ===> Total Chemistry                     297.437
  => WRF                                  2921.877
  ===> Total WRF-GC                       3219.314
 max optd  1.9364301E+31
 max taucldi  2.3520375E-03
 max taucldw  1.0201803E-06
 Switching is not necessary as we are already
 in the right domain!
 GIGC_Chunk_Run: Running for in-PET grid #           1
 GIGC_Chunk_Run: Received new grid IM, JM, LM =          15           9
          49
 =================================================
 W R F - G C   T I M E R S
    Domain           1 (Units: s)
 =================================================
  => Coupler Component                       6.017
   -- Physics & Parameterization             1.305
   -- Diagnostics Out                        0.000
  => GEOS-Chem Column                      292.491
  ===> Total Chemistry                     298.507
  => WRF                                  2940.296
  ===> Total WRF-GC                       3238.803
 max optd  1.9364301E+31
 max taucldi  2.3736509E-03
 max taucldw  1.0252751E-06
 Switching is not necessary as we are already
 in the right domain!
 GIGC_Chunk_Run: Running for in-PET grid #           1
 GIGC_Chunk_Run: Received new grid IM, JM, LM =          15           9
          49
 =================================================
 W R F - G C   T I M E R S
    Domain           1 (Units: s)
 =================================================
  => Coupler Component                       6.062
   -- Physics & Parameterization             1.314
   -- Diagnostics Out                        0.000
  => GEOS-Chem Column                      293.526
  ===> Total Chemistry                     299.588
  => WRF                                  2958.720
  ===> Total WRF-GC                       3258.308
 max optd  1.9364301E+31
 max taucldi  2.3908094E-03
 max taucldw  1.0297013E-06
 Switching is not necessary as we are already
 in the right domain!
 GIGC_Chunk_Run: Running for in-PET grid #           1
 GIGC_Chunk_Run: Received new grid IM, JM, LM =          15           9
          49
 =================================================
 W R F - G C   T I M E R S
    Domain           1 (Units: s)
 =================================================
  => Coupler Component                       6.106
   -- Physics & Parameterization             1.324
   -- Diagnostics Out                        0.000
  => GEOS-Chem Column                      294.563
  ===> Total Chemistry                     300.669
  => WRF                                  2977.271
  ===> Total WRF-GC                       3277.940
 max optd  1.9364301E+31
 max taucldi  2.4024795E-03
 max taucldw  1.0337734E-06
 Switching is not necessary as we are already
 in the right domain!
 GIGC_Chunk_Run: Running for in-PET grid #           1
 GIGC_Chunk_Run: Received new grid IM, JM, LM =          15           9
          49
 =================================================
 W R F - G C   T I M E R S
    Domain           1 (Units: s)
 =================================================
  => Coupler Component                       6.154
   -- Physics & Parameterization             1.333
   -- Diagnostics Out                        0.000
  => GEOS-Chem Column                      295.607
  ===> Total Chemistry                     301.760
  => WRF                                  2995.848
  ===> Total WRF-GC                       3297.608
 max optd  1.9364301E+31
 max taucldi  2.4026074E-03
 max taucldw  1.0425449E-06
 Switching is not necessary as we are already
 in the right domain!
 GIGC_Chunk_Run: Running for in-PET grid #           1
 GIGC_Chunk_Run: Received new grid IM, JM, LM =          15           9
          49
 =================================================
 W R F - G C   T I M E R S
    Domain           1 (Units: s)
 =================================================
  => Coupler Component                       6.197
   -- Physics & Parameterization             1.342
   -- Diagnostics Out                        0.000
  => GEOS-Chem Column                      296.633
  ===> Total Chemistry                     302.830
  => WRF                                  3014.541
  ===> Total WRF-GC                       3317.371
 max optd  1.9364301E+31
 max taucldi  2.3961745E-03
 max taucldw  1.0547693E-06
 Switching is not necessary as we are already
 in the right domain!
 GIGC_Chunk_Run: Running for in-PET grid #           1
 GIGC_Chunk_Run: Received new grid IM, JM, LM =          15           9
          49
 =================================================
 W R F - G C   T I M E R S
    Domain           1 (Units: s)
 =================================================
  => Coupler Component                       6.242
   -- Physics & Parameterization             1.352
   -- Diagnostics Out                        0.000
  => GEOS-Chem Column                      297.678
  ===> Total Chemistry                     303.921
  => WRF                                  3033.473
  ===> Total WRF-GC                       3337.394
 max optd  1.9364301E+31
 max taucldi  2.4147865E-03
 max taucldw  1.0659462E-06
 Switching is not necessary as we are already
 in the right domain!
 GIGC_Chunk_Run: Running for in-PET grid #           1
 GIGC_Chunk_Run: Received new grid IM, JM, LM =          15           9
          49
 =================================================
 W R F - G C   T I M E R S
    Domain           1 (Units: s)
 =================================================
  => Coupler Component                       6.289
   -- Physics & Parameterization             1.361
   -- Diagnostics Out                        0.000
  => GEOS-Chem Column                      298.724
  ===> Total Chemistry                     305.013
  => WRF                                  3052.286
  ===> Total WRF-GC                       3357.298
 max optd  1.9364301E+31
 max taucldi  2.4011743E-03
 max taucldw  1.0761833E-06
 Switching is not necessary as we are already
 in the right domain!
 GIGC_Chunk_Run: Running for in-PET grid #           1
 GIGC_Chunk_Run: Received new grid IM, JM, LM =          15           9
          49
 =================================================
 W R F - G C   T I M E R S
    Domain           1 (Units: s)
 =================================================
  => Coupler Component                       6.313
   -- Physics & Parameterization             1.370
   -- Diagnostics Out                        0.000
  => GEOS-Chem Column                      299.962
  ===> Total Chemistry                     306.275
  => WRF                                  3071.033
  ===> Total WRF-GC                       3377.308
d01 2018-01-01_12:00:00 wrf: SUCCESS COMPLETE WRF
