taskid: 2968 hostname: ip-172-31-10-63
Quilting with   1 groups of   0 I/O tasks.
 Ntasks in X           64 , ntasks in Y           72
--- WARNING: traj_opt is zero, but num_traj is not zero; setting num_traj to zero.
--- NOTE: sst_update is 0, setting io_form_auxinput4 = 0 and auxinput4_interval = 0 for all domains
--- NOTE: grid_fdda is 0 for domain      1, setting gfdda interval and ending time to 0 for that domain.
--- NOTE: both grid_sfdda and pxlsm_soil_nudge are 0 for domain      1, setting sgfdda interval and ending time to 0 for that domain.
--- NOTE: obs_nudge_opt is 0 for domain      1, setting obs nudging interval and ending time to 0 for that domain.
--- NOTE: bl_pbl_physics /= 4, implies mfshconv must be 0, resetting
Need MYNN PBL for icloud_bl = 1, resetting to 0
*************************************
No physics suite selected.
Physics options will be used directly from the namelist.
*************************************
--- NOTE: RRTMG radiation is in use, setting:  levsiz=59, alevsiz=12, no_src_types=6
--- NOTE: num_soil_layers has been set to      4
WRF V3.9.1.1 MODEL
 *************************************
 Parent domain
 ids,ide,jds,jde            1         950           1         650
 ims,ime,jms,jme          354         382         409         431
 ips,ipe,jps,jpe          361         375         416         424
 *************************************
DYNAMICS OPTION: Eulerian Mass Coordinate
   alloc_space_field: domain            1 ,              203623800  bytes allocated
  med_initialdata_input: calling input_input
Max map factor in domain 1 =  1.40. Scale the dt in the model accordingly.
INPUT LandUse = "USGS"
 LANDUSE TYPE = "USGS" FOUND          33  CATEGORIES           2  SEASONS WATER CATEGORY =           16  SNOW CATEGORY =           24
INITIALIZE THREE Noah LSM RELATED TABLES
*****************************************************************
  __          _______  ______       _____  _____ _    _ _____
  \ \        / /  __ \|  ____|     / ____|/ ____| |  | |  __ \
   \ \  /\  / /| |__) | |__ ______| |  __| |    | |__| | |__) |
    \ \/  \/ / |  _  /|  __|______| | |_ | |    |  __  |  ___/
     \  /\  /  | | \ \| |         | |__| | |____| |  | | |
      \/  \/   |_|  \_\_|          \_____|\_____|_|  |_|_|
*****************************************************************
         WRF-GC MODEL, VERSION 1811.11 - WRF BINDINGS
 For errors, suggestions & feedback email linhaipeng@pku.edu.cn
*****************************************************************
    This is domain            1
 ### GIGC_Stateful_Mod: Root CPU, after READ_INPUT_FILE
  Linoz Data:  O3 climatology :                  z*=10, 12, ..., 58                             2.700E-08 1.083E-05
  Linoz Data:  Temperature climatology :         z*=10, 12, ..., 58                             1.859E+02 2.904E+02
  Linoz Data:  Column O3 above box climalology : z*=10, 12, ..., 58                             7.538E-02 3.770E+02
  Linoz Data:  P-L O3 climatology (mr/s):        z*=10, 12, ..., 58                            -1.590E-10 2.835E-11
  Linoz Data:  d(P-L)/dO3 (1/s) :                z*=10, 12, ..., 58                            -8.386E-04 7.556E-09
  Linoz Data:  d(P-L)/dT (mr/K) :                z*=10, 12, ..., 58                            -5.742E-12 4.615E-14
  Linoz Data:  d(P-L)/d(column O3) (mr/DU) :     z*=10, 12, ..., 58                            -1.921E-12 5.038E-10
 ### GIGC_Stateful_Mod: Root CPU, after LINOZ_READ
 %%%%%%%%% GIGC IN-PET GRID SWITCHING HACKS %%%%%%%%%
     (Not very) Proudly brought to you by hplin      
 Some debug information:
 ID:           1
 IM, JM, LM:          15           9          49  will be set as PAR
 Allocs: CMN T GC F
 RC at entry-point:           0
 %%%%%%%%%%%%%%%%%%%%%%%%%%%%%%%%%%%%%%%%%%%%%%%%%%%%
 No need to switch HcoState for ID           1
 Exit RC:            0
 %%%%%%%%%    FINISHED GIGC_Switch_Dims    %%%%%%%%%
 GIGC_Chunk_Init: Received new grid IM, JM, LM =          15           9
          49
     ### GIGC_INIT_SIMULATION: after Input_Opt% setups
     ### GIGC_INIT_SIMULATION: after GC_Init_All
     ### GIGC_INIT_SIMULATION: after GC_Init_Extra
     ### GIGC_INIT_SIMULATION: after INIT_FJX
 # GIGC_CHUNK_MOD: after SV save, ID =           1
 WRFGC chemics_init: Following information regarding Input_Opt% (for all doms)
 After domain           1
 HPC:  T
 LPRT:  F
 DoConv:  T
 DoDryDep:  T
 DoEmis:  T
 DoChem:  T
 DoTurb:  T
 DoWetDep:  T

 tropopause_init: DONE intialized domain            1

 mediation_integrate: med_read_wrf_chem_emissions: Open file wrfchemi_00z_d01
 HOURLY EMISSIONS UPDATE TIME        0.0       0.0
mediation_integrate: med_read_wrf_chem_emissions: Read emissions for time 2018-01-01_00:00:00
open_aux_u : error opening wrffirechemi_d01_2018-01-01_00:00:00 for reading. 100
open_aux_u : error opening wrfchemi_gocart_bg_d01 for reading. 100
d01 2018-01-01_00:00:00 Input data processed for aux input   8 for domain   1
open_aux_u : error opening wrfchemv_d01 for reading. 100
 Tile Strategy is not specified. Assuming 1D-Y
WRF TILE   1 IS    361 IE    375 JS    416 JE    424
WRF NUMBER OF TILES =   1
 max optd  5.6586944E+23
 max taucldi  0.0000000E+00
 max taucldw  0.0000000E+00
 =================================================
 W R F - G C   T I M E R S
    Domain           1 (Units: s)
 =================================================
  => Coupler Component                       0.030
   -- Physics & Parameterization             0.001
   -- Diagnostics Out                        0.000
  => GEOS-Chem Column                        0.000
  ===> Total Chemistry                       0.030
  => WRF                                     0.000
  ===> Total WRF-GC                          0.030
 max optd  5.6586944E+23
 max taucldi  1.0000007E-14
 max taucldw  1.0000007E-14
 %%%%%%%%% GIGC IN-PET GRID SWITCHING HACKS %%%%%%%%%
     (Not very) Proudly brought to you by hplin      
 Some debug information:
 ID:           1
 IM, JM, LM:          15           9          49  will be set as PAR
 Allocs: CMN T GC T
 RC at entry-point:           0
 %%%%%%%%%%%%%%%%%%%%%%%%%%%%%%%%%%%%%%%%%%%%%%%%%%%%
 No need to switch HcoState for ID           1
 Debug HcoState nSpc, NX, NY, NZ         163          15           9          49
 Exit RC:            0
 %%%%%%%%%    FINISHED GIGC_Switch_Dims    %%%%%%%%%
 GIGC_Chunk_Run: Running for in-PET grid #           1
 GIGC_Chunk_Run: Received new grid IM, JM, LM =          15           9
          49
HEMCO: Opening /fsx/HEMCO/BIOFUEL/v2014-07/biofuel.geos.4x5.nc
HEMCO: Opening /fsx/HEMCO/BROMINE/v2015-02/Bromocarb_Liang2010.nc
HEMCO: Opening /fsx/HEMCO/ACET/v2014-07/ACET_seawater.generic.1x1.nc
HEMCO: Opening /fsx/HEMCO/SOILNOX/v2014-07/DepReservoirDefault.nc
HEMCO: Opening /fsx/HEMCO/SOILNOX/v2014-07/soilNOx.landtype.generic.025x025.1L.nc
HEMCO: Opening /fsx/HEMCO/SOILNOX/v2014-07/soilNOx.climate.generic.05x05.nc
HEMCO: Opening /fsx/HEMCO/DUST_DEAD/v2014-07/dst_tibds.geos.4x5.nc
HEMCO: Opening /fsx/HEMCO/DUST_DEAD/v2014-07/GOCART_src_fn.geos.4x5.nc
HEMCO: Opening /fsx/HEMCO/MEGAN/v2018-05/MEGAN2.1_EF.geos.025x03125.nc
HEMCO: Opening /fsx/HEMCO/MEGAN/v2017-07/CLM4_PFT.geos.025x03125.nc
HEMCO: Opening /fsx/HEMCO/TIMEZONES/v2015-02/timezones_voronoi_1x1.nc
HEMCO: Opening /fsx/HEMCO/STRAT/v2015-01/Bry/GEOSCCM_Bry.200701.day.nc
HEMCO: Opening /fsx/HEMCO/STRAT/v2015-01/Bry/GEOSCCM_Bry.200701.night.nc
HEMCO: Opening /fsx/HEMCO/OMOC/v2018-01/OMOC.DJF.01x01.nc
HEMCO: Opening /fsx/HEMCO/OMOC/v2018-01/OMOC.MAM.01x01.nc
HEMCO: Opening /fsx/HEMCO/OMOC/v2018-01/OMOC.JJA.01x01.nc
HEMCO: Opening /fsx/HEMCO/OMOC/v2018-01/OMOC.SON.01x01.nc
HEMCO: Opening /fsx/HEMCO/AnnualScalar/v2014-07/AnnualScalar.geos.1x1.nc
HEMCO: Opening /fsx/HEMCO/EDGARv42/v2015-02/NO/EDGAR_hourly_NOxScal.nc
HEMCO: Opening /fsx/HEMCO/MASKS/v2018-09/EMEP_mask.geos.1x1.20151222.nc
HEMCO: Opening /fsx/HEMCO/MASKS/v2018-09/Canada_mask.geos.1x1.nc
HEMCO: Opening /fsx/HEMCO/MASKS/v2018-09/SE_Asia_mask.generic.1x1.nc
HEMCO: Opening /fsx/HEMCO/MASKS/v2018-09/MIX_Asia_mask.generic.025x025.nc
HEMCO: Opening /fsx/HEMCO/MASKS/v2018-09/CONUS_Mask.01x01.nc
HEMCO: Opening /fsx/HEMCO/MASKS/v2018-09/AF_LANDMASK.geos.05x0666.global.nc
HEMCO: Opening /fsx/HEMCO/MASKS/v2018-09/China_mask.generic.1x1.nc
HEMCO: Opening /fsx/HEMCO/MASKS/v2018-09/India_mask.generic.1x1.nc
HEMCO: Opening /fsx/HEMCO/AnnualScalar/v2014-07/AnnualScalar.geos.1x1.nc
HEMCO: Opening /fsx/HEMCO/NH3/v2014-07/NH3_geos.4x5.nc
HEMCO: Opening /fsx/HEMCO/NH3/v2018-04/NH3_Arctic_seabirds.nc
HEMCO: Opening /fsx/HEMCO/CEDS/v2018-08/2014/NO-em-anthro_CMIP_CEDS_2014.nc
HEMCO: Opening /fsx/HEMCO/CEDS/v2018-08/2014/CO-em-anthro_CMIP_CEDS_2014.nc
HEMCO: Opening /fsx/HEMCO/CEDS/v2018-08/2014/SO2-em-anthro_CMIP_CEDS_2014.nc
HEMCO: Opening /fsx/HEMCO/CEDS/v2018-08/2014/NH3-em-anthro_CMIP_CEDS_2014.nc
HEMCO: Opening /fsx/HEMCO/CEDS/v2018-08/2014/BC-em-anthro_CMIP_CEDS_2014.nc
HEMCO: Opening /fsx/HEMCO/CEDS/v2018-08/2014/OC-em-anthro_CMIP_CEDS_2014.nc
HEMCO: Opening /fsx/HEMCO/CEDS/v2018-08/2014/EOH-em-anthro_CMIP_CEDS_2014.nc
HEMCO: Opening /fsx/HEMCO/CEDS/v2018-08/2014/C2H6-em-anthro_CMIP_CEDS_2014.nc
HEMCO: Opening /fsx/HEMCO/CEDS/v2018-08/2014/C3H8-em-anthro_CMIP_CEDS_2014.nc
HEMCO: Opening /fsx/HEMCO/CEDS/v2018-08/2014/ALK4_butanes-em-anthro_CMIP_CEDS_2014.nc
HEMCO: Opening /fsx/HEMCO/CEDS/v2018-08/2014/ALK4_pentanes-em-anthro_CMIP_CEDS_2014.nc
HEMCO: Opening /fsx/HEMCO/CEDS/v2018-08/2014/ALK4_hexanes-em-anthro_CMIP_CEDS_2014.nc
HEMCO: Opening /fsx/HEMCO/CEDS/v2018-08/2014/PRPE-em-anthro_CMIP_CEDS_2014.nc
HEMCO: Opening /fsx/HEMCO/CEDS/v2018-08/2014/BENZ-em-anthro_CMIP_CEDS_2014.nc
HEMCO: Opening /fsx/HEMCO/CEDS/v2018-08/2014/TOLU-em-anthro_CMIP_CEDS_2014.nc
HEMCO: Opening /fsx/HEMCO/CEDS/v2018-08/2014/XYLE-em-anthro_CMIP_CEDS_2014.nc
HEMCO: Opening /fsx/HEMCO/CEDS/v2018-08/2014/CH2O-em-anthro_CMIP_CEDS_2014.nc
HEMCO: Opening /fsx/HEMCO/CEDS/v2018-08/2014/ALD2-em-anthro_CMIP_CEDS_2014.nc
HEMCO: Opening /fsx/HEMCO/CEDS/v2018-08/2014/MEK-em-anthro_CMIP_CEDS_2014.nc
HEMCO: Opening /fsx/HEMCO/CEDS/v2018-08/2014/HCOOH-em-anthro_CMIP_CEDS_2014.nc
HEMCO: Opening /fsx/HEMCO/C2H6_2010/v2017-05/C2H6_global_anth_biof.201001.nc
HEMCO: Opening /fsx/HEMCO/NEI2011/v2017-02-MM/01/NEI11_0.1x0.1_201101_monmean.nc
HEMCO: Opening /fsx/HEMCO/NEI2011/v2017-02-MM/01/NEI11_0.1x0.1_201101_monmean_egu.nc
HEMCO: Opening /fsx/HEMCO/NEI2011/v2017-02-MM/01/NEI11_0.1x0.1_201101_monmean_egupk.nc
HEMCO: Opening /fsx/HEMCO/NEI2011/v2017-02-MM/01/NEI11_0.1x0.1_201101_monmean_oilgas.nc
HEMCO: Opening /fsx/HEMCO/NEI2011/v2017-02-MM/01/NEI11_0.1x0.1_201101_monmean_othpt.nc
HEMCO: Opening /fsx/HEMCO/NEI2011/v2017-02-MM/01/NEI11_0.1x0.1_201101_monmean_ptnonipm.nc
HEMCO: Opening /fsx/HEMCO/IODINE/v2017-09/CH3I_monthly_emissions_Ordonez_2012_COARDS.nc
HEMCO: Opening /fsx/HEMCO/IODINE/v2017-09/CH2I2_monthly_emissions_Ordonez_2012_COARDS.nc
HEMCO: Opening /fsx/HEMCO/IODINE/v2017-09/CH2ICl_monthly_emissions_Ordonez_2012_COARDS.nc
HEMCO: Opening /fsx/HEMCO/IODINE/v2017-09/CH2IBr_monthly_emissions_Ordonez_2012_COARDS.nc
HEMCO: Opening /fsx/HEMCO/CEDS/v2018-08/2014/CO-em-anthro_CMIP_CEDS_2014.nc
HEMCO: Opening /fsx/HEMCO/CEDS/v2018-08/2014/SO2-em-anthro_CMIP_CEDS_2014.nc
HEMCO: Opening /fsx/HEMCO/CEDS/v2018-08/2014/NH3-em-anthro_CMIP_CEDS_2014.nc
HEMCO: Opening /fsx/HEMCO/CEDS/v2018-08/2014/BC-em-anthro_CMIP_CEDS_2014.nc
HEMCO: Opening /fsx/HEMCO/CEDS/v2018-08/2014/OC-em-anthro_CMIP_CEDS_2014.nc
HEMCO: Opening /fsx/HEMCO/CEDS/v2018-08/2014/EOH-em-anthro_CMIP_CEDS_2014.nc
HEMCO: Opening /fsx/HEMCO/CEDS/v2018-08/2014/C2H6-em-anthro_CMIP_CEDS_2014.nc
HEMCO: Opening /fsx/HEMCO/CEDS/v2018-08/2014/C3H8-em-anthro_CMIP_CEDS_2014.nc
HEMCO: Opening /fsx/HEMCO/CEDS/v2018-08/2014/ALK4_butanes-em-anthro_CMIP_CEDS_2014.nc
HEMCO: Opening /fsx/HEMCO/CEDS/v2018-08/2014/ALK4_pentanes-em-anthro_CMIP_CEDS_2014.nc
HEMCO: Opening /fsx/HEMCO/CEDS/v2018-08/2014/ALK4_hexanes-em-anthro_CMIP_CEDS_2014.nc
HEMCO: Opening /fsx/HEMCO/CEDS/v2018-08/2014/PRPE-em-anthro_CMIP_CEDS_2014.nc
HEMCO: Opening /fsx/HEMCO/CEDS/v2018-08/2014/BENZ-em-anthro_CMIP_CEDS_2014.nc
HEMCO: Opening /fsx/HEMCO/CEDS/v2018-08/2014/TOLU-em-anthro_CMIP_CEDS_2014.nc
HEMCO: Opening /fsx/HEMCO/CEDS/v2018-08/2014/XYLE-em-anthro_CMIP_CEDS_2014.nc
HEMCO: Opening /fsx/HEMCO/CEDS/v2018-08/2014/CH2O-em-anthro_CMIP_CEDS_2014.nc
HEMCO: Opening /fsx/HEMCO/CEDS/v2018-08/2014/ALD2-em-anthro_CMIP_CEDS_2014.nc
HEMCO: Opening /fsx/HEMCO/CEDS/v2018-08/2014/MEK-em-anthro_CMIP_CEDS_2014.nc
HEMCO: Opening /fsx/HEMCO/CEDS/v2018-08/2014/HCOOH-em-anthro_CMIP_CEDS_2014.nc
HEMCO: Opening /fsx/HEMCO/CEDS/v2018-08/2014/NO-em-anthro_CMIP_CEDS_2014.nc
HEMCO: Opening /fsx/HEMCO/AEIC/v2015-01/AEIC.47L.gen.1x1.nc
HEMCO: Opening /fsx/HEMCO/ALD2/v2017-03/resp.geos.2x25.nc
HEMCO: Opening /fsx/HEMCO/DMS/v2015-07/DMS_lana.geos.1x1.nc
HEMCO: Opening /fsx/HEMCO/ALD2/v2017-03/ALD2_seawater.geos.2x25.nc
HEMCO: Opening /fsx/HEMCO/DUST_DEAD/v2014-07/dst_tvbds.geos.4x5.nc
HEMCO: Opening /fsx/HEMCO/DUST_DEAD/v2018-04/PM25FINE_ECLIPSE_2015.geos.2x25.nc
HEMCO: Opening /fsx/HEMCO/SOA/v2014-07/NVOC.geos.1x1.nc
HEMCO: Opening /fsx/HEMCO/GFED4/v2015-10/2016/GFED4_gen.025x025.201601.nc
HEMCO: Opening /fsx/HEMCO/UVALBEDO/v2015-03/uvalbedo.geos.2x25.nc
HEMCO: Opening /fsx/HEMCO/GMI/v2015-02/gmi.clim.ACET.geos5.2x25.nc
HEMCO: Opening /fsx/HEMCO/GMI/v2015-02/gmi.clim.ACTA.geos5.2x25.nc
HEMCO: Opening /fsx/HEMCO/GMI/v2015-02/gmi.clim.ALD2.geos5.2x25.nc
HEMCO: Opening /fsx/HEMCO/GMI/v2015-02/gmi.clim.ALK4.geos5.2x25.nc
HEMCO: Opening /fsx/HEMCO/GMI/v2015-02/gmi.clim.C2H6.geos5.2x25.nc
HEMCO: Opening /fsx/HEMCO/GMI/v2015-02/gmi.clim.C3H8.geos5.2x25.nc
HEMCO: Opening /fsx/HEMCO/GMI/v2015-02/gmi.clim.CCl4.geos5.2x25.nc
HEMCO: Opening /fsx/HEMCO/GMI/v2015-02/gmi.clim.CF2Cl2.geos5.2x25.nc
HEMCO: Opening /fsx/HEMCO/GMI/v2015-02/gmi.clim.CF2ClBr.geos5.2x25.nc
HEMCO: Opening /fsx/HEMCO/GMI/v2015-02/gmi.clim.CFC113.geos5.2x25.nc
HEMCO: Opening /fsx/HEMCO/GMI/v2015-02/gmi.clim.CFC114.geos5.2x25.nc
HEMCO: Opening /fsx/HEMCO/GMI/v2015-02/gmi.clim.CFC115.geos5.2x25.nc
HEMCO: Opening /fsx/HEMCO/GMI/v2015-02/gmi.clim.CFCl3.geos5.2x25.nc
HEMCO: Opening /fsx/HEMCO/GMI/v2015-02/gmi.clim.CH2O.geos5.2x25.nc
HEMCO: Opening /fsx/HEMCO/GMI/v2015-02/gmi.clim.CH3CCl3.geos5.2x25.nc
HEMCO: Opening /fsx/HEMCO/GMI/v2015-02/gmi.clim.CH3Cl.geos5.2x25.nc
HEMCO: Opening /fsx/HEMCO/GMI/v2015-02/gmi.clim.CH4.geos5.2x25.nc
HEMCO: Opening /fsx/HEMCO/GMI/v2015-02/gmi.clim.CO.geos5.2x25.nc
HEMCO: Opening /fsx/HEMCO/GMI/v2015-02/gmi.clim.Cl.geos5.2x25.nc
HEMCO: Opening /fsx/HEMCO/GMI/v2015-02/gmi.clim.Cl2.geos5.2x25.nc
HEMCO: Opening /fsx/HEMCO/GMI/v2015-02/gmi.clim.Cl2O2.geos5.2x25.nc
HEMCO: Opening /fsx/HEMCO/GMI/v2015-02/gmi.clim.ClO.geos5.2x25.nc
HEMCO: Opening /fsx/HEMCO/GMI/v2015-02/gmi.clim.EOH.geos5.2x25.nc
HEMCO: Opening /fsx/HEMCO/GMI/v2015-02/gmi.clim.GLYC.geos5.2x25.nc
HEMCO: Opening /fsx/HEMCO/GMI/v2015-02/gmi.clim.GLYX.geos5.2x25.nc
HEMCO: Opening /fsx/HEMCO/GMI/v2015-02/gmi.clim.H2402.geos5.2x25.nc
HEMCO: Opening /fsx/HEMCO/GMI/v2015-02/gmi.clim.H2O.geos5.2x25.nc
HEMCO: Opening /fsx/HEMCO/GMI/v2015-02/gmi.clim.H2O2.geos5.2x25.nc
HEMCO: Opening /fsx/HEMCO/GMI/v2015-02/gmi.clim.HAC.geos5.2x25.nc
HEMCO: Opening /fsx/HEMCO/GMI/v2015-02/gmi.clim.HCFC141b.geos5.2x25.nc
HEMCO: Opening /fsx/HEMCO/GMI/v2015-02/gmi.clim.HCFC142b.geos5.2x25.nc
HEMCO: Opening /fsx/HEMCO/GMI/v2015-02/gmi.clim.HCFC22.geos5.2x25.nc
HEMCO: Opening /fsx/HEMCO/GMI/v2015-02/gmi.clim.HCOOH.geos5.2x25.20170108.nc
HEMCO: Opening /fsx/HEMCO/GMI/v2015-02/gmi.clim.HCl.geos5.2x25.nc
HEMCO: Opening /fsx/HEMCO/GMI/v2015-02/gmi.clim.HNO2.geos5.2x25.nc
HEMCO: Opening /fsx/HEMCO/GMI/v2015-02/gmi.clim.HNO3.geos5.2x25.nc
HEMCO: Opening /fsx/HEMCO/GMI/v2015-02/gmi.clim.HNO4.geos5.2x25.nc
HEMCO: Opening /fsx/HEMCO/GMI/v2015-02/gmi.clim.HOCl.geos5.2x25.nc
HEMCO: Opening /fsx/HEMCO/GMI/v2015-02/gmi.clim.ISN1.geos5.2x25.nc
HEMCO: Opening /fsx/HEMCO/GMI/v2015-02/gmi.clim.ISOP.geos5.2x25.nc
HEMCO: Opening /fsx/HEMCO/GMI/v2015-02/gmi.clim.MACR.geos5.2x25.nc
HEMCO: Opening /fsx/HEMCO/GMI/v2015-02/gmi.clim.MAP.geos5.2x25.nc
HEMCO: Opening /fsx/HEMCO/GMI/v2015-02/gmi.clim.MEK.geos5.2x25.nc
HEMCO: Opening /fsx/HEMCO/GMI/v2015-02/gmi.clim.MGLY.geos5.2x25.nc
HEMCO: Opening /fsx/HEMCO/GMI/v2015-02/gmi.clim.MP.geos5.2x25.nc
HEMCO: Opening /fsx/HEMCO/GMI/v2015-02/gmi.clim.MVK.geos5.2x25.nc
HEMCO: Opening /fsx/HEMCO/GMI/v2015-02/gmi.clim.N2O.geos5.2x25.nc
HEMCO: Opening /fsx/HEMCO/GMI/v2015-02/gmi.clim.N2O5.geos5.2x25.nc
HEMCO: Opening /fsx/HEMCO/GMI/v2015-02/gmi.clim.NO.geos5.2x25.nc
HEMCO: Opening /fsx/HEMCO/GMI/v2015-02/gmi.clim.NO2.geos5.2x25.nc
HEMCO: Opening /fsx/HEMCO/GMI/v2015-02/gmi.clim.NO3.geos5.2x25.nc
HEMCO: Opening /fsx/HEMCO/GMI/v2015-02/gmi.clim.O3.geos5.2x25.nc
HEMCO: Opening /fsx/HEMCO/GMI/v2015-02/gmi.clim.OClO.geos5.2x25.nc
HEMCO: Opening /fsx/HEMCO/GMI/v2015-02/gmi.clim.PAN.geos5.2x25.nc
HEMCO: Opening /fsx/HEMCO/GMI/v2015-02/gmi.clim.NPMN.geos5.2x25.nc
HEMCO: Opening /fsx/HEMCO/GMI/v2015-02/gmi.clim.IPMN.geos5.2x25.nc
HEMCO: Opening /fsx/HEMCO/GMI/v2015-02/gmi.clim.PPN.geos5.2x25.nc
HEMCO: Opening /fsx/HEMCO/GMI/v2015-02/gmi.clim.PRPE.geos5.2x25.nc
HEMCO: Opening /fsx/HEMCO/GMI/v2015-02/gmi.clim.R4N2.geos5.2x25.nc
HEMCO: Opening /fsx/HEMCO/GMI/v2015-02/gmi.clim.RCHO.geos5.2x25.nc
HEMCO: Opening /fsx/HEMCO/GMI/v2015-02/gmi.clim.RIPA.geos5.2x25.nc
HEMCO: Opening /fsx/HEMCO/GMI/v2015-02/gmi.clim.RIPB.geos5.2x25.nc
HEMCO: Opening /fsx/HEMCO/GMI/v2015-02/gmi.clim.RIPD.geos5.2x25.nc
HEMCO: Opening /fsx/HEMCO/GMI/v2015-02/gmi.clim.OH.geos5.2x25.nc
HEMCO: Opening /fsx/HEMCO/NOAA_GMD/v2018-01/monthly.gridded.surface.methane.1979-2020.1x1.nc
HEMCO: Opening /fsx/HEMCO/GEIA/v2014-07/GEIA_monthscal.generic.1x1.nc
HEMCO: Opening /fsx/HEMCO/EMEP/v2015-03/EMEP.Seasonal.geos.1x1.nc
HEMCO: Opening /fsx/HEMCO/BROMINE/v2015-02/BromoCarb_Season.nc
HEMCO: Opening /fsx/HEMCO/EDGARv43/v2016-11/EDGAR_v43.Seasonal.1x1.nc
HEMCO: Opening /fsx/HEMCO/NEI2005/v2014-09/scaling/NEI99.dow.geos.1x1.nc
HEMCO: Opening /fsx/HEMCO/VOLCANO/v2015-02/2009/volc_so2_gen.1x1.47L.200901.nc
HEMCO: Opening /fsx/HEMCO/SOILNOX/v2014-07/soilNOx.fert_res.generic.05x05.nc
 vdinti: pbl height will be limited to bottom           25  model levels. top is
     431.250100000000       hpa
 =================================================
 W R F - G C   T I M E R S
    Domain           1 (Units: s)
 =================================================
  => Coupler Component                       0.053
   -- Physics & Parameterization             0.010
   -- Diagnostics Out                        0.000
  => GEOS-Chem Column                       79.126
  ===> Total Chemistry                      79.179
  => WRF                                    17.311
  ===> Total WRF-GC                         96.489
 max optd  1.9364301E+31
 max taucldi  7.5115764E-08
 max taucldw  2.0728094E-05
 Switching is not necessary as we are already
 in the right domain!
 GIGC_Chunk_Run: Running for in-PET grid #           1
 GIGC_Chunk_Run: Received new grid IM, JM, LM =          15           9
          49
 =================================================
 W R F - G C   T I M E R S
    Domain           1 (Units: s)
 =================================================
  => Coupler Component                       0.087
   -- Physics & Parameterization             0.020
   -- Diagnostics Out                        0.000
  => GEOS-Chem Column                       80.375
  ===> Total Chemistry                      80.462
  => WRF                                   111.787
  ===> Total WRF-GC                        192.249
 max optd  1.9364301E+31
 max taucldi  2.0709435E-07
 max taucldw  3.8989507E-05
 Switching is not necessary as we are already
 in the right domain!
 GIGC_Chunk_Run: Running for in-PET grid #           1
 GIGC_Chunk_Run: Received new grid IM, JM, LM =          15           9
          49
 =================================================
 W R F - G C   T I M E R S
    Domain           1 (Units: s)
 =================================================
  => Coupler Component                       0.116
   -- Physics & Parameterization             0.029
   -- Diagnostics Out                        0.000
  => GEOS-Chem Column                       81.451
  ===> Total Chemistry                      81.566
  => WRF                                   132.404
  ===> Total WRF-GC                        213.971
 max optd  1.9364301E+31
 max taucldi  3.7843583E-07
 max taucldw  5.4403157E-05
 Switching is not necessary as we are already
 in the right domain!
 GIGC_Chunk_Run: Running for in-PET grid #           1
 GIGC_Chunk_Run: Received new grid IM, JM, LM =          15           9
          49
 =================================================
 W R F - G C   T I M E R S
    Domain           1 (Units: s)
 =================================================
  => Coupler Component                       0.150
   -- Physics & Parameterization             0.038
   -- Diagnostics Out                        0.000
  => GEOS-Chem Column                       82.491
  ===> Total Chemistry                      82.641
  => WRF                                   151.407
  ===> Total WRF-GC                        234.048
 max optd  1.9364301E+31
 max taucldi  5.6103505E-07
 max taucldw  6.5708242E-05
 Switching is not necessary as we are already
 in the right domain!
 GIGC_Chunk_Run: Running for in-PET grid #           1
 GIGC_Chunk_Run: Received new grid IM, JM, LM =          15           9
          49
 =================================================
 W R F - G C   T I M E R S
    Domain           1 (Units: s)
 =================================================
  => Coupler Component                       0.186
   -- Physics & Parameterization             0.048
   -- Diagnostics Out                        0.000
  => GEOS-Chem Column                       83.498
  ===> Total Chemistry                      83.684
  => WRF                                   169.982
  ===> Total WRF-GC                        253.666
 max optd  1.9364301E+31
 max taucldi  7.5166423E-07
 max taucldw  7.5025200E-05
 Switching is not necessary as we are already
 in the right domain!
 GIGC_Chunk_Run: Running for in-PET grid #           1
 GIGC_Chunk_Run: Received new grid IM, JM, LM =          15           9
          49
 =================================================
 W R F - G C   T I M E R S
    Domain           1 (Units: s)
 =================================================
  => Coupler Component                       0.219
   -- Physics & Parameterization             0.057
   -- Diagnostics Out                        0.000
  => GEOS-Chem Column                       84.512
  ===> Total Chemistry                      84.732
  => WRF                                   188.505
  ===> Total WRF-GC                        273.236
 max optd  1.9364301E+31
 max taucldi  9.9960153E-07
 max taucldw  8.6337473E-05
 Switching is not necessary as we are already
 in the right domain!
 GIGC_Chunk_Run: Running for in-PET grid #           1
 GIGC_Chunk_Run: Received new grid IM, JM, LM =          15           9
          49
 =================================================
 W R F - G C   T I M E R S
    Domain           1 (Units: s)
 =================================================
  => Coupler Component                       0.252
   -- Physics & Parameterization             0.066
   -- Diagnostics Out                        0.000
  => GEOS-Chem Column                       85.525
  ===> Total Chemistry                      85.777
  => WRF                                   206.995
  ===> Total WRF-GC                        292.772
 max optd  1.9364301E+31
 max taucldi  1.3137799E-06
 max taucldw  9.9963938E-05
 Switching is not necessary as we are already
 in the right domain!
 GIGC_Chunk_Run: Running for in-PET grid #           1
 GIGC_Chunk_Run: Received new grid IM, JM, LM =          15           9
          49
 =================================================
 W R F - G C   T I M E R S
    Domain           1 (Units: s)
 =================================================
  => Coupler Component                       0.290
   -- Physics & Parameterization             0.076
   -- Diagnostics Out                        0.000
  => GEOS-Chem Column                       86.525
  ===> Total Chemistry                      86.815
  => WRF                                   225.390
  ===> Total WRF-GC                        312.205
 max optd  1.9364301E+31
 max taucldi  1.6300658E-06
 max taucldw  1.1261993E-04
 Switching is not necessary as we are already
 in the right domain!
 GIGC_Chunk_Run: Running for in-PET grid #           1
 GIGC_Chunk_Run: Received new grid IM, JM, LM =          15           9
          49
 =================================================
 W R F - G C   T I M E R S
    Domain           1 (Units: s)
 =================================================
  => Coupler Component                       0.324
   -- Physics & Parameterization             0.086
   -- Diagnostics Out                        0.000
  => GEOS-Chem Column                       87.532
  ===> Total Chemistry                      87.856
  => WRF                                   243.831
  ===> Total WRF-GC                        331.687
 max optd  1.9364301E+31
 max taucldi  2.0382308E-06
 max taucldw  1.2749471E-04
 Switching is not necessary as we are already
 in the right domain!
 GIGC_Chunk_Run: Running for in-PET grid #           1
 GIGC_Chunk_Run: Received new grid IM, JM, LM =          15           9
          49
 =================================================
 W R F - G C   T I M E R S
    Domain           1 (Units: s)
 =================================================
  => Coupler Component                       0.359
   -- Physics & Parameterization             0.095
   -- Diagnostics Out                        0.000
  => GEOS-Chem Column                       88.570
  ===> Total Chemistry                      88.928
  => WRF                                   262.325
  ===> Total WRF-GC                        351.253
 max optd  1.9364301E+31
 max taucldi  2.5235336E-06
 max taucldw  1.4080251E-04
 Switching is not necessary as we are already
 in the right domain!
 GIGC_Chunk_Run: Running for in-PET grid #           1
 GIGC_Chunk_Run: Received new grid IM, JM, LM =          15           9
          49
 =================================================
 W R F - G C   T I M E R S
    Domain           1 (Units: s)
 =================================================
  => Coupler Component                       0.397
   -- Physics & Parameterization             0.105
   -- Diagnostics Out                        0.000
  => GEOS-Chem Column                       89.593
  ===> Total Chemistry                      89.991
  => WRF                                   280.705
  ===> Total WRF-GC                        370.695
 max optd  1.9364301E+31
 max taucldi  3.0508531E-06
 max taucldw  1.5216869E-04
 Switching is not necessary as we are already
 in the right domain!
 GIGC_Chunk_Run: Running for in-PET grid #           1
 GIGC_Chunk_Run: Received new grid IM, JM, LM =          15           9
          49
 =================================================
 W R F - G C   T I M E R S
    Domain           1 (Units: s)
 =================================================
  => Coupler Component                       0.440
   -- Physics & Parameterization             0.114
   -- Diagnostics Out                        0.000
  => GEOS-Chem Column                       90.607
  ===> Total Chemistry                      91.047
  => WRF                                   298.952
  ===> Total WRF-GC                        389.999
 HOURLY EMISSIONS UPDATE TIME     3600.0       0.0
mediation_integrate: med_read_wrf_chem_emissions: Read emissions for time 2018-01-01_01:00:00
 max optd  1.9364301E+31
 max taucldi  3.5978514E-06
 max taucldw  1.6103493E-04
 Switching is not necessary as we are already
 in the right domain!
 GIGC_Chunk_Run: Running for in-PET grid #           1
 GIGC_Chunk_Run: Received new grid IM, JM, LM =          15           9
          49
 =================================================
 W R F - G C   T I M E R S
    Domain           1 (Units: s)
 =================================================
  => Coupler Component                       0.480
   -- Physics & Parameterization             0.124
   -- Diagnostics Out                        0.000
  => GEOS-Chem Column                       91.627
  ===> Total Chemistry                      92.107
  => WRF                                   317.310
  ===> Total WRF-GC                        409.417
 max optd  1.9364301E+31
 max taucldi  4.1434391E-06
 max taucldw  1.7145886E-04
 Switching is not necessary as we are already
 in the right domain!
 GIGC_Chunk_Run: Running for in-PET grid #           1
 GIGC_Chunk_Run: Received new grid IM, JM, LM =          15           9
          49
 =================================================
 W R F - G C   T I M E R S
    Domain           1 (Units: s)
 =================================================
  => Coupler Component                       0.519
   -- Physics & Parameterization             0.133
   -- Diagnostics Out                        0.000
  => GEOS-Chem Column                       92.638
  ===> Total Chemistry                      93.156
  => WRF                                   335.649
  ===> Total WRF-GC                        428.805
 max optd  1.9364301E+31
 max taucldi  4.6680698E-06
 max taucldw  1.8154881E-04
 Switching is not necessary as we are already
 in the right domain!
 GIGC_Chunk_Run: Running for in-PET grid #           1
 GIGC_Chunk_Run: Received new grid IM, JM, LM =          15           9
          49
 =================================================
 W R F - G C   T I M E R S
    Domain           1 (Units: s)
 =================================================
  => Coupler Component                       0.562
   -- Physics & Parameterization             0.143
   -- Diagnostics Out                        0.000
  => GEOS-Chem Column                       93.652
  ===> Total Chemistry                      94.213
  => WRF                                   353.879
  ===> Total WRF-GC                        448.092
 max optd  1.9364301E+31
 max taucldi  5.1613383E-06
 max taucldw  1.8968218E-04
 Switching is not necessary as we are already
 in the right domain!
 GIGC_Chunk_Run: Running for in-PET grid #           1
 GIGC_Chunk_Run: Received new grid IM, JM, LM =          15           9
          49
 =================================================
 W R F - G C   T I M E R S
    Domain           1 (Units: s)
 =================================================
  => Coupler Component                       0.604
   -- Physics & Parameterization             0.153
   -- Diagnostics Out                        0.000
  => GEOS-Chem Column                       94.658
  ===> Total Chemistry                      95.261
  => WRF                                   372.173
  ===> Total WRF-GC                        467.434
 max optd  1.9364301E+31
 max taucldi  5.6250274E-06
 max taucldw  1.9602105E-04
 Switching is not necessary as we are already
 in the right domain!
 GIGC_Chunk_Run: Running for in-PET grid #           1
 GIGC_Chunk_Run: Received new grid IM, JM, LM =          15           9
          49
 =================================================
 W R F - G C   T I M E R S
    Domain           1 (Units: s)
 =================================================
  => Coupler Component                       0.644
   -- Physics & Parameterization             0.163
   -- Diagnostics Out                        0.000
  => GEOS-Chem Column                       95.669
  ===> Total Chemistry                      96.313
  => WRF                                   390.452
  ===> Total WRF-GC                        486.765
 max optd  1.9364301E+31
 max taucldi  6.0398588E-06
 max taucldw  2.0042881E-04
 Switching is not necessary as we are already
 in the right domain!
 GIGC_Chunk_Run: Running for in-PET grid #           1
 GIGC_Chunk_Run: Received new grid IM, JM, LM =          15           9
          49
 =================================================
 W R F - G C   T I M E R S
    Domain           1 (Units: s)
 =================================================
  => Coupler Component                       0.683
   -- Physics & Parameterization             0.172
   -- Diagnostics Out                        0.000
  => GEOS-Chem Column                       96.689
  ===> Total Chemistry                      97.372
  => WRF                                   408.701
  ===> Total WRF-GC                        506.073
 max optd  1.9364301E+31
 max taucldi  6.4393435E-06
 max taucldw  2.0402198E-04
 Switching is not necessary as we are already
 in the right domain!
 GIGC_Chunk_Run: Running for in-PET grid #           1
 GIGC_Chunk_Run: Received new grid IM, JM, LM =          15           9
          49
 =================================================
 W R F - G C   T I M E R S
    Domain           1 (Units: s)
 =================================================
  => Coupler Component                       0.724
   -- Physics & Parameterization             0.182
   -- Diagnostics Out                        0.000
  => GEOS-Chem Column                       97.697
  ===> Total Chemistry                      98.422
  => WRF                                   426.970
  ===> Total WRF-GC                        525.392
 max optd  1.9364301E+31
 max taucldi  6.8212453E-06
 max taucldw  2.0681370E-04
 Switching is not necessary as we are already
 in the right domain!
 GIGC_Chunk_Run: Running for in-PET grid #           1
 GIGC_Chunk_Run: Received new grid IM, JM, LM =          15           9
          49
 =================================================
 W R F - G C   T I M E R S
    Domain           1 (Units: s)
 =================================================
  => Coupler Component                       0.765
   -- Physics & Parameterization             0.191
   -- Diagnostics Out                        0.000
  => GEOS-Chem Column                       98.709
  ===> Total Chemistry                      99.474
  => WRF                                   445.354
  ===> Total WRF-GC                        544.828
 max optd  1.9364301E+31
 max taucldi  7.1313402E-06
 max taucldw  2.0787936E-04
 Switching is not necessary as we are already
 in the right domain!
 GIGC_Chunk_Run: Running for in-PET grid #           1
 GIGC_Chunk_Run: Received new grid IM, JM, LM =          15           9
          49
 =================================================
 W R F - G C   T I M E R S
    Domain           1 (Units: s)
 =================================================
  => Coupler Component                       0.805
   -- Physics & Parameterization             0.201
   -- Diagnostics Out                        0.000
  => GEOS-Chem Column                       99.732
  ===> Total Chemistry                     100.537
  => WRF                                   463.519
  ===> Total WRF-GC                        564.056
 max optd  1.9364301E+31
 max taucldi  7.3382416E-06
 max taucldw  2.1277985E-04
 Switching is not necessary as we are already
 in the right domain!
 GIGC_Chunk_Run: Running for in-PET grid #           1
 GIGC_Chunk_Run: Received new grid IM, JM, LM =          15           9
          49
 =================================================
 W R F - G C   T I M E R S
    Domain           1 (Units: s)
 =================================================
  => Coupler Component                       0.845
   -- Physics & Parameterization             0.210
   -- Diagnostics Out                        0.000
  => GEOS-Chem Column                      100.739
  ===> Total Chemistry                     101.583
  => WRF                                   481.716
  ===> Total WRF-GC                        583.299
 max optd  1.9364301E+31
 max taucldi  7.4583859E-06
 max taucldw  2.2468861E-04
 Switching is not necessary as we are already
 in the right domain!
 GIGC_Chunk_Run: Running for in-PET grid #           1
 GIGC_Chunk_Run: Received new grid IM, JM, LM =          15           9
          49
 =================================================
 W R F - G C   T I M E R S
    Domain           1 (Units: s)
 =================================================
  => Coupler Component                       0.888
   -- Physics & Parameterization             0.220
   -- Diagnostics Out                        0.000
  => GEOS-Chem Column                      101.743
  ===> Total Chemistry                     102.631
  => WRF                                   500.046
  ===> Total WRF-GC                        602.678
 max optd  1.9364301E+31
 max taucldi  7.4670979E-06
 max taucldw  2.3464259E-04
 Switching is not necessary as we are already
 in the right domain!
 GIGC_Chunk_Run: Running for in-PET grid #           1
 GIGC_Chunk_Run: Received new grid IM, JM, LM =          15           9
          49
 =================================================
 W R F - G C   T I M E R S
    Domain           1 (Units: s)
 =================================================
  => Coupler Component                       0.929
   -- Physics & Parameterization             0.229
   -- Diagnostics Out                        0.000
  => GEOS-Chem Column                      102.755
  ===> Total Chemistry                     103.684
  => WRF                                   518.258
  ===> Total WRF-GC                        621.943
 HOURLY EMISSIONS UPDATE TIME     7200.0       0.0
mediation_integrate: med_read_wrf_chem_emissions: Read emissions for time 2018-01-01_02:00:00
 max optd  1.9364301E+31
 max taucldi  7.4841005E-06
 max taucldw  2.4192721E-04
 Switching is not necessary as we are already
 in the right domain!
 GIGC_Chunk_Run: Running for in-PET grid #           1
 GIGC_Chunk_Run: Received new grid IM, JM, LM =          15           9
          49
 =================================================
 W R F - G C   T I M E R S
    Domain           1 (Units: s)
 =================================================
  => Coupler Component                       0.973
   -- Physics & Parameterization             0.239
   -- Diagnostics Out                        0.000
  => GEOS-Chem Column                      103.764
  ===> Total Chemistry                     104.737
  => WRF                                   536.514
  ===> Total WRF-GC                        641.251
 max optd  1.9364301E+31
 max taucldi  1.0252956E-05
 max taucldw  2.4603982E-04
 Switching is not necessary as we are already
 in the right domain!
 GIGC_Chunk_Run: Running for in-PET grid #           1
 GIGC_Chunk_Run: Received new grid IM, JM, LM =          15           9
          49
 =================================================
 W R F - G C   T I M E R S
    Domain           1 (Units: s)
 =================================================
  => Coupler Component                       1.013
   -- Physics & Parameterization             0.248
   -- Diagnostics Out                        0.000
  => GEOS-Chem Column                      104.778
  ===> Total Chemistry                     105.792
  => WRF                                   554.748
  ===> Total WRF-GC                        660.540
 max optd  1.9364301E+31
 max taucldi  2.0044239E-05
 max taucldw  2.4576127E-04
 Switching is not necessary as we are already
 in the right domain!
 GIGC_Chunk_Run: Running for in-PET grid #           1
 GIGC_Chunk_Run: Received new grid IM, JM, LM =          15           9
          49
 =================================================
 W R F - G C   T I M E R S
    Domain           1 (Units: s)
 =================================================
  => Coupler Component                       1.048
   -- Physics & Parameterization             0.258
   -- Diagnostics Out                        0.000
  => GEOS-Chem Column                      105.825
  ===> Total Chemistry                     106.874
  => WRF                                   572.943
  ===> Total WRF-GC                        679.817
 max optd  1.9364301E+31
 max taucldi  2.9255711E-05
 max taucldw  2.4029608E-04
 Switching is not necessary as we are already
 in the right domain!
 GIGC_Chunk_Run: Running for in-PET grid #           1
 GIGC_Chunk_Run: Received new grid IM, JM, LM =          15           9
          49
 =================================================
 W R F - G C   T I M E R S
    Domain           1 (Units: s)
 =================================================
  => Coupler Component                       1.087
   -- Physics & Parameterization             0.267
   -- Diagnostics Out                        0.000
  => GEOS-Chem Column                      106.848
  ===> Total Chemistry                     107.934
  => WRF                                   591.062
  ===> Total WRF-GC                        698.996
 max optd  1.9364301E+31
 max taucldi  4.3349108E-05
 max taucldw  2.2995318E-04
 Switching is not necessary as we are already
 in the right domain!
 GIGC_Chunk_Run: Running for in-PET grid #           1
 GIGC_Chunk_Run: Received new grid IM, JM, LM =          15           9
          49
 =================================================
 W R F - G C   T I M E R S
    Domain           1 (Units: s)
 =================================================
  => Coupler Component                       1.129
   -- Physics & Parameterization             0.277
   -- Diagnostics Out                        0.000
  => GEOS-Chem Column                      107.857
  ===> Total Chemistry                     108.986
  => WRF                                   609.222
  ===> Total WRF-GC                        718.209
 max optd  1.9364301E+31
 max taucldi  6.5532593E-05
 max taucldw  2.1507233E-04
 Switching is not necessary as we are already
 in the right domain!
 GIGC_Chunk_Run: Running for in-PET grid #           1
 GIGC_Chunk_Run: Received new grid IM, JM, LM =          15           9
          49
 =================================================
 W R F - G C   T I M E R S
    Domain           1 (Units: s)
 =================================================
  => Coupler Component                       1.173
   -- Physics & Parameterization             0.287
   -- Diagnostics Out                        0.000
  => GEOS-Chem Column                      108.866
  ===> Total Chemistry                     110.039
  => WRF                                   627.388
  ===> Total WRF-GC                        737.427
 max optd  1.9364301E+31
 max taucldi  9.4023504E-05
 max taucldw  1.9597576E-04
 Switching is not necessary as we are already
 in the right domain!
 GIGC_Chunk_Run: Running for in-PET grid #           1
 GIGC_Chunk_Run: Received new grid IM, JM, LM =          15           9
          49
 =================================================
 W R F - G C   T I M E R S
    Domain           1 (Units: s)
 =================================================
  => Coupler Component                       1.215
   -- Physics & Parameterization             0.296
   -- Diagnostics Out                        0.000
  => GEOS-Chem Column                      109.878
  ===> Total Chemistry                     111.092
  => WRF                                   645.586
  ===> Total WRF-GC                        756.678
 max optd  1.9364301E+31
 max taucldi  1.6093910E-04
 max taucldw  1.7549639E-04
 Switching is not necessary as we are already
 in the right domain!
 GIGC_Chunk_Run: Running for in-PET grid #           1
 GIGC_Chunk_Run: Received new grid IM, JM, LM =          15           9
          49
 =================================================
 W R F - G C   T I M E R S
    Domain           1 (Units: s)
 =================================================
  => Coupler Component                       1.248
   -- Physics & Parameterization             0.305
   -- Diagnostics Out                        0.000
  => GEOS-Chem Column                      110.896
  ===> Total Chemistry                     112.144
  => WRF                                   663.676
  ===> Total WRF-GC                        775.820
 max optd  1.9364301E+31
 max taucldi  2.8707369E-04
 max taucldw  1.5621922E-04
 Switching is not necessary as we are already
 in the right domain!
 GIGC_Chunk_Run: Running for in-PET grid #           1
 GIGC_Chunk_Run: Received new grid IM, JM, LM =          15           9
          49
 =================================================
 W R F - G C   T I M E R S
    Domain           1 (Units: s)
 =================================================
  => Coupler Component                       1.290
   -- Physics & Parameterization             0.315
   -- Diagnostics Out                        0.000
  => GEOS-Chem Column                      111.927
  ===> Total Chemistry                     113.217
  => WRF                                   681.836
  ===> Total WRF-GC                        795.053
 max optd  1.9364301E+31
 max taucldi  3.7162757E-04
 max taucldw  1.4041395E-04
 Switching is not necessary as we are already
 in the right domain!
 GIGC_Chunk_Run: Running for in-PET grid #           1
 GIGC_Chunk_Run: Received new grid IM, JM, LM =          15           9
          49
 =================================================
 W R F - G C   T I M E R S
    Domain           1 (Units: s)
 =================================================
  => Coupler Component                       1.336
   -- Physics & Parameterization             0.325
   -- Diagnostics Out                        0.000
  => GEOS-Chem Column                      112.954
  ===> Total Chemistry                     114.290
  => WRF                                   700.005
  ===> Total WRF-GC                        814.295
 max optd  1.9364301E+31
 max taucldi  4.2553531E-04
 max taucldw  1.2911695E-04
 Switching is not necessary as we are already
 in the right domain!
 GIGC_Chunk_Run: Running for in-PET grid #           1
 GIGC_Chunk_Run: Received new grid IM, JM, LM =          15           9
          49
 =================================================
 W R F - G C   T I M E R S
    Domain           1 (Units: s)
 =================================================
  => Coupler Component                       1.378
   -- Physics & Parameterization             0.334
   -- Diagnostics Out                        0.000
  => GEOS-Chem Column                      113.971
  ===> Total Chemistry                     115.350
  => WRF                                   718.082
  ===> Total WRF-GC                        833.432
 max optd  1.9364301E+31
 max taucldi  4.5467672E-04
 max taucldw  1.2145682E-04
 Switching is not necessary as we are already
 in the right domain!
 GIGC_Chunk_Run: Running for in-PET grid #           1
 GIGC_Chunk_Run: Received new grid IM, JM, LM =          15           9
          49
 =================================================
 W R F - G C   T I M E R S
    Domain           1 (Units: s)
 =================================================
  => Coupler Component                       1.419
   -- Physics & Parameterization             0.344
   -- Diagnostics Out                        0.000
  => GEOS-Chem Column                      114.979
  ===> Total Chemistry                     116.398
  => WRF                                   736.180
  ===> Total WRF-GC                        852.578
 HOURLY EMISSIONS UPDATE TIME    10800.0       0.0
mediation_integrate: med_read_wrf_chem_emissions: Read emissions for time 2018-01-01_03:00:00
 max optd  1.9364301E+31
 max taucldi  4.7194434E-04
 max taucldw  1.1787553E-04
 Switching is not necessary as we are already
 in the right domain!
 GIGC_Chunk_Run: Running for in-PET grid #           1
 GIGC_Chunk_Run: Received new grid IM, JM, LM =          15           9
          49
 =================================================
 W R F - G C   T I M E R S
    Domain           1 (Units: s)
 =================================================
  => Coupler Component                       1.460
   -- Physics & Parameterization             0.354
   -- Diagnostics Out                        0.000
  => GEOS-Chem Column                      116.000
  ===> Total Chemistry                     117.460
  => WRF                                   754.376
  ===> Total WRF-GC                        871.836
 max optd  1.9364301E+31
 max taucldi  4.7760419E-04
 max taucldw  1.1851024E-04
 Switching is not necessary as we are already
 in the right domain!
 GIGC_Chunk_Run: Running for in-PET grid #           1
 GIGC_Chunk_Run: Received new grid IM, JM, LM =          15           9
          49
 =================================================
 W R F - G C   T I M E R S
    Domain           1 (Units: s)
 =================================================
  => Coupler Component                       1.500
   -- Physics & Parameterization             0.364
   -- Diagnostics Out                        0.000
  => GEOS-Chem Column                      117.008
  ===> Total Chemistry                     118.508
  => WRF                                   772.476
  ===> Total WRF-GC                        890.984
 max optd  1.9364301E+31
 max taucldi  4.6733694E-04
 max taucldw  1.2118022E-04
 Switching is not necessary as we are already
 in the right domain!
 GIGC_Chunk_Run: Running for in-PET grid #           1
 GIGC_Chunk_Run: Received new grid IM, JM, LM =          15           9
          49
 =================================================
 W R F - G C   T I M E R S
    Domain           1 (Units: s)
 =================================================
  => Coupler Component                       1.543
   -- Physics & Parameterization             0.373
   -- Diagnostics Out                        0.000
  => GEOS-Chem Column                      118.028
  ===> Total Chemistry                     119.571
  => WRF                                   790.627
  ===> Total WRF-GC                        910.199
 max optd  1.9364301E+31
 max taucldi  4.4318204E-04
 max taucldw  1.2404755E-04
 Switching is not necessary as we are already
 in the right domain!
 GIGC_Chunk_Run: Running for in-PET grid #           1
 GIGC_Chunk_Run: Received new grid IM, JM, LM =          15           9
          49
 =================================================
 W R F - G C   T I M E R S
    Domain           1 (Units: s)
 =================================================
  => Coupler Component                       1.583
   -- Physics & Parameterization             0.383
   -- Diagnostics Out                        0.000
  => GEOS-Chem Column                      119.063
  ===> Total Chemistry                     120.646
  => WRF                                   808.755
  ===> Total WRF-GC                        929.401
 max optd  1.9364301E+31
 max taucldi  4.0755267E-04
 max taucldw  1.2610178E-04
 Switching is not necessary as we are already
 in the right domain!
 GIGC_Chunk_Run: Running for in-PET grid #           1
 GIGC_Chunk_Run: Received new grid IM, JM, LM =          15           9
          49
 =================================================
 W R F - G C   T I M E R S
    Domain           1 (Units: s)
 =================================================
  => Coupler Component                       1.626
   -- Physics & Parameterization             0.392
   -- Diagnostics Out                        0.000
  => GEOS-Chem Column                      120.076
  ===> Total Chemistry                     121.702
  => WRF                                   826.812
  ===> Total WRF-GC                        948.514
 max optd  1.9364301E+31
 max taucldi  3.8214968E-04
 max taucldw  1.2707940E-04
 Switching is not necessary as we are already
 in the right domain!
 GIGC_Chunk_Run: Running for in-PET grid #           1
 GIGC_Chunk_Run: Received new grid IM, JM, LM =          15           9
          49
 =================================================
 W R F - G C   T I M E R S
    Domain           1 (Units: s)
 =================================================
  => Coupler Component                       1.668
   -- Physics & Parameterization             0.401
   -- Diagnostics Out                        0.000
  => GEOS-Chem Column                      121.109
  ===> Total Chemistry                     122.777
  => WRF                                   845.229
  ===> Total WRF-GC                        968.006
 max optd  1.9364301E+31
 max taucldi  3.5350793E-04
 max taucldw  1.2730126E-04
 Switching is not necessary as we are already
 in the right domain!
 GIGC_Chunk_Run: Running for in-PET grid #           1
 GIGC_Chunk_Run: Received new grid IM, JM, LM =          15           9
          49
 =================================================
 W R F - G C   T I M E R S
    Domain           1 (Units: s)
 =================================================
  => Coupler Component                       1.710
   -- Physics & Parameterization             0.411
   -- Diagnostics Out                        0.000
  => GEOS-Chem Column                      122.126
  ===> Total Chemistry                     123.837
  => WRF                                   863.402
  ===> Total WRF-GC                        987.239
 max optd  1.9364301E+31
 max taucldi  2.9841799E-04
 max taucldw  1.2792501E-04
 Switching is not necessary as we are already
 in the right domain!
 GIGC_Chunk_Run: Running for in-PET grid #           1
 GIGC_Chunk_Run: Received new grid IM, JM, LM =          15           9
          49
 =================================================
 W R F - G C   T I M E R S
    Domain           1 (Units: s)
 =================================================
  => Coupler Component                       1.747
   -- Physics & Parameterization             0.421
   -- Diagnostics Out                        0.000
  => GEOS-Chem Column                      123.182
  ===> Total Chemistry                     124.929
  => WRF                                   881.471
  ===> Total WRF-GC                       1006.400
 max optd  1.9364301E+31
 max taucldi  2.1717809E-04
 max taucldw  1.3057992E-04
 Switching is not necessary as we are already
 in the right domain!
 GIGC_Chunk_Run: Running for in-PET grid #           1
 GIGC_Chunk_Run: Received new grid IM, JM, LM =          15           9
          49
 =================================================
 W R F - G C   T I M E R S
    Domain           1 (Units: s)
 =================================================
  => Coupler Component                       1.792
   -- Physics & Parameterization             0.430
   -- Diagnostics Out                        0.000
  => GEOS-Chem Column                      124.198
  ===> Total Chemistry                     125.990
  => WRF                                   899.667
  ===> Total WRF-GC                       1025.657
 max optd  1.9364301E+31
 max taucldi  1.4171003E-04
 max taucldw  1.3346242E-04
 Switching is not necessary as we are already
 in the right domain!
 GIGC_Chunk_Run: Running for in-PET grid #           1
 GIGC_Chunk_Run: Received new grid IM, JM, LM =          15           9
          49
 =================================================
 W R F - G C   T I M E R S
    Domain           1 (Units: s)
 =================================================
  => Coupler Component                       1.835
   -- Physics & Parameterization             0.440
   -- Diagnostics Out                        0.000
  => GEOS-Chem Column                      125.212
  ===> Total Chemistry                     127.046
  => WRF                                   917.845
  ===> Total WRF-GC                       1044.891
 max optd  1.9364301E+31
 max taucldi  8.2265811E-05
 max taucldw  1.3620988E-04
 Switching is not necessary as we are already
 in the right domain!
 GIGC_Chunk_Run: Running for in-PET grid #           1
 GIGC_Chunk_Run: Received new grid IM, JM, LM =          15           9
          49
 =================================================
 W R F - G C   T I M E R S
    Domain           1 (Units: s)
 =================================================
  => Coupler Component                       1.874
   -- Physics & Parameterization             0.450
   -- Diagnostics Out                        0.000
  => GEOS-Chem Column                      126.221
  ===> Total Chemistry                     128.095
  => WRF                                   935.968
  ===> Total WRF-GC                       1064.064
 max optd  1.9364301E+31
 max taucldi  3.9843362E-05
 max taucldw  1.3876033E-04
 Switching is not necessary as we are already
 in the right domain!
 GIGC_Chunk_Run: Running for in-PET grid #           1
 GIGC_Chunk_Run: Received new grid IM, JM, LM =          15           9
          49
 =================================================
 W R F - G C   T I M E R S
    Domain           1 (Units: s)
 =================================================
  => Coupler Component                       1.918
   -- Physics & Parameterization             0.460
   -- Diagnostics Out                        0.000
  => GEOS-Chem Column                      127.230
  ===> Total Chemistry                     129.148
  => WRF                                   954.164
  ===> Total WRF-GC                       1083.312
 HOURLY EMISSIONS UPDATE TIME    14400.0       0.0
mediation_integrate: med_read_wrf_chem_emissions: Read emissions for time 2018-01-01_04:00:00
 max optd  1.9364301E+31
 max taucldi  1.2779514E-05
 max taucldw  1.4129460E-04
 Switching is not necessary as we are already
 in the right domain!
 GIGC_Chunk_Run: Running for in-PET grid #           1
 GIGC_Chunk_Run: Received new grid IM, JM, LM =          15           9
          49
 =================================================
 W R F - G C   T I M E R S
    Domain           1 (Units: s)
 =================================================
  => Coupler Component                       1.957
   -- Physics & Parameterization             0.469
   -- Diagnostics Out                        0.000
  => GEOS-Chem Column                      128.243
  ===> Total Chemistry                     130.200
  => WRF                                   972.334
  ===> Total WRF-GC                       1102.535
 max optd  1.9364301E+31
 max taucldi  8.0927584E-06
 max taucldw  1.4392157E-04
 Switching is not necessary as we are already
 in the right domain!
 GIGC_Chunk_Run: Running for in-PET grid #           1
 GIGC_Chunk_Run: Received new grid IM, JM, LM =          15           9
          49
 =================================================
 W R F - G C   T I M E R S
    Domain           1 (Units: s)
 =================================================
  => Coupler Component                       2.000
   -- Physics & Parameterization             0.479
   -- Diagnostics Out                        0.000
  => GEOS-Chem Column                      129.267
  ===> Total Chemistry                     131.267
  => WRF                                   990.527
  ===> Total WRF-GC                       1121.794
 max optd  1.9364301E+31
 max taucldi  1.3801691E-04
 max taucldw  1.4645710E-04
 Switching is not necessary as we are already
 in the right domain!
 GIGC_Chunk_Run: Running for in-PET grid #           1
 GIGC_Chunk_Run: Received new grid IM, JM, LM =          15           9
          49
 =================================================
 W R F - G C   T I M E R S
    Domain           1 (Units: s)
 =================================================
  => Coupler Component                       2.039
   -- Physics & Parameterization             0.488
   -- Diagnostics Out                        0.000
  => GEOS-Chem Column                      130.300
  ===> Total Chemistry                     132.339
  => WRF                                  1008.773
  ===> Total WRF-GC                       1141.112
 max optd  1.9364301E+31
 max taucldi  3.3941548E-04
 max taucldw  1.4898030E-04
 Switching is not necessary as we are already
 in the right domain!
 GIGC_Chunk_Run: Running for in-PET grid #           1
 GIGC_Chunk_Run: Received new grid IM, JM, LM =          15           9
          49
 =================================================
 W R F - G C   T I M E R S
    Domain           1 (Units: s)
 =================================================
  => Coupler Component                       2.078
   -- Physics & Parameterization             0.498
   -- Diagnostics Out                        0.000
  => GEOS-Chem Column                      131.313
  ===> Total Chemistry                     133.391
  => WRF                                  1026.884
  ===> Total WRF-GC                       1160.275
 max optd  1.9364301E+31
 max taucldi  7.6060282E-04
 max taucldw  1.5157103E-04
 Switching is not necessary as we are already
 in the right domain!
 GIGC_Chunk_Run: Running for in-PET grid #           1
 GIGC_Chunk_Run: Received new grid IM, JM, LM =          15           9
          49
 =================================================
 W R F - G C   T I M E R S
    Domain           1 (Units: s)
 =================================================
  => Coupler Component                       2.112
   -- Physics & Parameterization             0.507
   -- Diagnostics Out                        0.000
  => GEOS-Chem Column                      132.324
  ===> Total Chemistry                     134.436
  => WRF                                  1045.083
  ===> Total WRF-GC                       1179.518
 max optd  1.9364301E+31
 max taucldi  7.0535182E-04
 max taucldw  1.5407871E-04
 Switching is not necessary as we are already
 in the right domain!
 GIGC_Chunk_Run: Running for in-PET grid #           1
 GIGC_Chunk_Run: Received new grid IM, JM, LM =          15           9
          49
 =================================================
 W R F - G C   T I M E R S
    Domain           1 (Units: s)
 =================================================
  => Coupler Component                       2.154
   -- Physics & Parameterization             0.517
   -- Diagnostics Out                        0.000
  => GEOS-Chem Column                      133.332
  ===> Total Chemistry                     135.486
  => WRF                                  1063.285
  ===> Total WRF-GC                       1198.771
 max optd  1.9364301E+31
 max taucldi  4.9613183E-04
 max taucldw  1.5660786E-04
 Switching is not necessary as we are already
 in the right domain!
 GIGC_Chunk_Run: Running for in-PET grid #           1
 GIGC_Chunk_Run: Received new grid IM, JM, LM =          15           9
          49
 =================================================
 W R F - G C   T I M E R S
    Domain           1 (Units: s)
 =================================================
  => Coupler Component                       2.195
   -- Physics & Parameterization             0.526
   -- Diagnostics Out                        0.000
  => GEOS-Chem Column                      134.351
  ===> Total Chemistry                     136.546
  => WRF                                  1081.519
  ===> Total WRF-GC                       1218.065
 max optd  1.9364301E+31
 max taucldi  1.6062730E-04
 max taucldw  1.5960869E-04
 Switching is not necessary as we are already
 in the right domain!
 GIGC_Chunk_Run: Running for in-PET grid #           1
 GIGC_Chunk_Run: Received new grid IM, JM, LM =          15           9
          49
 =================================================
 W R F - G C   T I M E R S
    Domain           1 (Units: s)
 =================================================
  => Coupler Component                       2.236
   -- Physics & Parameterization             0.536
   -- Diagnostics Out                        0.000
  => GEOS-Chem Column                      135.366
  ===> Total Chemistry                     137.602
  => WRF                                  1099.660
  ===> Total WRF-GC                       1237.262
 max optd  1.9364301E+31
 max taucldi  4.0071722E-05
 max taucldw  1.6304024E-04
 Switching is not necessary as we are already
 in the right domain!
 GIGC_Chunk_Run: Running for in-PET grid #           1
 GIGC_Chunk_Run: Received new grid IM, JM, LM =          15           9
          49
 =================================================
 W R F - G C   T I M E R S
    Domain           1 (Units: s)
 =================================================
  => Coupler Component                       2.280
   -- Physics & Parameterization             0.546
   -- Diagnostics Out                        0.000
  => GEOS-Chem Column                      136.381
  ===> Total Chemistry                     138.661
  => WRF                                  1117.836
  ===> Total WRF-GC                       1256.496
 max optd  1.9364301E+31
 max taucldi  3.9186158E-05
 max taucldw  1.6671953E-04
 Switching is not necessary as we are already
 in the right domain!
 GIGC_Chunk_Run: Running for in-PET grid #           1
 GIGC_Chunk_Run: Received new grid IM, JM, LM =          15           9
          49
 =================================================
 W R F - G C   T I M E R S
    Domain           1 (Units: s)
 =================================================
  => Coupler Component                       2.316
   -- Physics & Parameterization             0.555
   -- Diagnostics Out                        0.000
  => GEOS-Chem Column                      137.426
  ===> Total Chemistry                     139.742
  => WRF                                  1136.002
  ===> Total WRF-GC                       1275.744
 max optd  1.9364301E+31
 max taucldi  3.5803951E-05
 max taucldw  1.7039404E-04
 Switching is not necessary as we are already
 in the right domain!
 GIGC_Chunk_Run: Running for in-PET grid #           1
 GIGC_Chunk_Run: Received new grid IM, JM, LM =          15           9
          49
 =================================================
 W R F - G C   T I M E R S
    Domain           1 (Units: s)
 =================================================
  => Coupler Component                       2.358
   -- Physics & Parameterization             0.565
   -- Diagnostics Out                        0.000
  => GEOS-Chem Column                      138.439
  ===> Total Chemistry                     140.797
  => WRF                                  1154.075
  ===> Total WRF-GC                       1294.872
 max optd  1.9364301E+31
 max taucldi  2.8497043E-05
 max taucldw  1.7390463E-04
 Switching is not necessary as we are already
 in the right domain!
 GIGC_Chunk_Run: Running for in-PET grid #           1
 GIGC_Chunk_Run: Received new grid IM, JM, LM =          15           9
          49
 =================================================
 W R F - G C   T I M E R S
    Domain           1 (Units: s)
 =================================================
  => Coupler Component                       2.399
   -- Physics & Parameterization             0.574
   -- Diagnostics Out                        0.000
  => GEOS-Chem Column                      139.460
  ===> Total Chemistry                     141.859
  => WRF                                  1172.201
  ===> Total WRF-GC                       1314.060
 HOURLY EMISSIONS UPDATE TIME    18000.0       0.0
mediation_integrate: med_read_wrf_chem_emissions: Read emissions for time 2018-01-01_05:00:00
 max optd  1.9364301E+31
 max taucldi  2.0215894E-05
 max taucldw  1.7724607E-04
 Switching is not necessary as we are already
 in the right domain!
 GIGC_Chunk_Run: Running for in-PET grid #           1
 GIGC_Chunk_Run: Received new grid IM, JM, LM =          15           9
          49
 =================================================
 W R F - G C   T I M E R S
    Domain           1 (Units: s)
 =================================================
  => Coupler Component                       2.443
   -- Physics & Parameterization             0.584
   -- Diagnostics Out                        0.000
  => GEOS-Chem Column                      140.470
  ===> Total Chemistry                     142.914
  => WRF                                  1190.382
  ===> Total WRF-GC                       1333.295
 max optd  1.9364301E+31
 max taucldi  1.2707858E-05
 max taucldw  1.8010465E-04
 Switching is not necessary as we are already
 in the right domain!
 GIGC_Chunk_Run: Running for in-PET grid #           1
 GIGC_Chunk_Run: Received new grid IM, JM, LM =          15           9
          49
 =================================================
 W R F - G C   T I M E R S
    Domain           1 (Units: s)
 =================================================
  => Coupler Component                       2.484
   -- Physics & Parameterization             0.594
   -- Diagnostics Out                        0.000
  => GEOS-Chem Column                      141.485
  ===> Total Chemistry                     143.968
  => WRF                                  1208.530
  ===> Total WRF-GC                       1352.498
 max optd  1.9364301E+31
 max taucldi  1.0071784E-05
 max taucldw  1.8251766E-04
 Switching is not necessary as we are already
 in the right domain!
 GIGC_Chunk_Run: Running for in-PET grid #           1
 GIGC_Chunk_Run: Received new grid IM, JM, LM =          15           9
          49
 =================================================
 W R F - G C   T I M E R S
    Domain           1 (Units: s)
 =================================================
  => Coupler Component                       2.528
   -- Physics & Parameterization             0.604
   -- Diagnostics Out                        0.000
  => GEOS-Chem Column                      142.496
  ===> Total Chemistry                     145.024
  => WRF                                  1226.656
  ===> Total WRF-GC                       1371.680
 max optd  1.9364301E+31
 max taucldi  1.0279671E-05
 max taucldw  1.8504618E-04
 Switching is not necessary as we are already
 in the right domain!
 GIGC_Chunk_Run: Running for in-PET grid #           1
 GIGC_Chunk_Run: Received new grid IM, JM, LM =          15           9
          49
 =================================================
 W R F - G C   T I M E R S
    Domain           1 (Units: s)
 =================================================
  => Coupler Component                       2.571
   -- Physics & Parameterization             0.613
   -- Diagnostics Out                        0.000
  => GEOS-Chem Column                      143.508
  ===> Total Chemistry                     146.079
  => WRF                                  1244.826
  ===> Total WRF-GC                       1390.905
 max optd  1.9364301E+31
 max taucldi  1.0550108E-05
 max taucldw  1.8799042E-04
 Switching is not necessary as we are already
 in the right domain!
 GIGC_Chunk_Run: Running for in-PET grid #           1
 GIGC_Chunk_Run: Received new grid IM, JM, LM =          15           9
          49
 =================================================
 W R F - G C   T I M E R S
    Domain           1 (Units: s)
 =================================================
  => Coupler Component                       2.614
   -- Physics & Parameterization             0.623
   -- Diagnostics Out                        0.000
  => GEOS-Chem Column                      144.514
  ===> Total Chemistry                     147.128
  => WRF                                  1263.049
  ===> Total WRF-GC                       1410.176
 max optd  1.9364301E+31
 max taucldi  1.0904434E-05
 max taucldw  1.9123276E-04
 Switching is not necessary as we are already
 in the right domain!
 GIGC_Chunk_Run: Running for in-PET grid #           1
 GIGC_Chunk_Run: Received new grid IM, JM, LM =          15           9
          49
 =================================================
 W R F - G C   T I M E R S
    Domain           1 (Units: s)
 =================================================
  => Coupler Component                       2.655
   -- Physics & Parameterization             0.632
   -- Diagnostics Out                        0.000
  => GEOS-Chem Column                      145.521
  ===> Total Chemistry                     148.177
  => WRF                                  1281.177
  ===> Total WRF-GC                       1429.354
 max optd  1.9364301E+31
 max taucldi  1.1361014E-05
 max taucldw  1.9448687E-04
 Switching is not necessary as we are already
 in the right domain!
 GIGC_Chunk_Run: Running for in-PET grid #           1
 GIGC_Chunk_Run: Received new grid IM, JM, LM =          15           9
          49
 =================================================
 W R F - G C   T I M E R S
    Domain           1 (Units: s)
 =================================================
  => Coupler Component                       2.696
   -- Physics & Parameterization             0.641
   -- Diagnostics Out                        0.000
  => GEOS-Chem Column                      146.531
  ===> Total Chemistry                     149.227
  => WRF                                  1299.436
  ===> Total WRF-GC                       1448.663
 max optd  1.9364301E+31
 max taucldi  1.1956115E-05
 max taucldw  1.9749378E-04
 Switching is not necessary as we are already
 in the right domain!
 GIGC_Chunk_Run: Running for in-PET grid #           1
 GIGC_Chunk_Run: Received new grid IM, JM, LM =          15           9
          49
 =================================================
 W R F - G C   T I M E R S
    Domain           1 (Units: s)
 =================================================
  => Coupler Component                       2.738
   -- Physics & Parameterization             0.651
   -- Diagnostics Out                        0.000
  => GEOS-Chem Column                      147.545
  ===> Total Chemistry                     150.283
  => WRF                                  1317.581
  ===> Total WRF-GC                       1467.865
 max optd  1.9364301E+31
 max taucldi  1.2723976E-05
 max taucldw  2.0026651E-04
 Switching is not necessary as we are already
 in the right domain!
 GIGC_Chunk_Run: Running for in-PET grid #           1
 GIGC_Chunk_Run: Received new grid IM, JM, LM =          15           9
          49
 =================================================
 W R F - G C   T I M E R S
    Domain           1 (Units: s)
 =================================================
  => Coupler Component                       2.778
   -- Physics & Parameterization             0.660
   -- Diagnostics Out                        0.000
  => GEOS-Chem Column                      148.559
  ===> Total Chemistry                     151.338
  => WRF                                  1335.783
  ===> Total WRF-GC                       1487.121
 max optd  1.9364301E+31
 max taucldi  1.3705722E-05
 max taucldw  2.0299366E-04
 Switching is not necessary as we are already
 in the right domain!
 GIGC_Chunk_Run: Running for in-PET grid #           1
 GIGC_Chunk_Run: Received new grid IM, JM, LM =          15           9
          49
 =================================================
 W R F - G C   T I M E R S
    Domain           1 (Units: s)
 =================================================
  => Coupler Component                       2.818
   -- Physics & Parameterization             0.670
   -- Diagnostics Out                        0.000
  => GEOS-Chem Column                      149.574
  ===> Total Chemistry                     152.392
  => WRF                                  1354.222
  ===> Total WRF-GC                       1506.614
 max optd  1.9364301E+31
 max taucldi  1.4932825E-05
 max taucldw  2.1115215E-04
 Switching is not necessary as we are already
 in the right domain!
 GIGC_Chunk_Run: Running for in-PET grid #           1
 GIGC_Chunk_Run: Received new grid IM, JM, LM =          15           9
          49
 =================================================
 W R F - G C   T I M E R S
    Domain           1 (Units: s)
 =================================================
  => Coupler Component                       2.856
   -- Physics & Parameterization             0.679
   -- Diagnostics Out                        0.000
  => GEOS-Chem Column                      150.582
  ===> Total Chemistry                     153.438
  => WRF                                  1372.377
  ===> Total WRF-GC                       1525.815
 max optd  1.9364301E+31
 max taucldi  1.6429325E-05
 max taucldw  2.2912587E-04
 Switching is not necessary as we are already
 in the right domain!
 GIGC_Chunk_Run: Running for in-PET grid #           1
 GIGC_Chunk_Run: Received new grid IM, JM, LM =          15           9
          49
 =================================================
 W R F - G C   T I M E R S
    Domain           1 (Units: s)
 =================================================
  => Coupler Component                       2.893
   -- Physics & Parameterization             0.689
   -- Diagnostics Out                        0.000
  => GEOS-Chem Column                      151.588
  ===> Total Chemistry                     154.481
  => WRF                                  1390.559
  ===> Total WRF-GC                       1545.040
 HOURLY EMISSIONS UPDATE TIME    21600.0       0.0
mediation_integrate: med_read_wrf_chem_emissions: Read emissions for time 2018-01-01_06:00:00
 max optd  1.9364301E+31
 max taucldi  1.8175488E-05
 max taucldw  2.5368072E-04
 Switching is not necessary as we are already
 in the right domain!
 GIGC_Chunk_Run: Running for in-PET grid #           1
 GIGC_Chunk_Run: Received new grid IM, JM, LM =          15           9
          49
 =================================================
 W R F - G C   T I M E R S
    Domain           1 (Units: s)
 =================================================
  => Coupler Component                       2.936
   -- Physics & Parameterization             0.698
   -- Diagnostics Out                        0.000
  => GEOS-Chem Column                      152.621
  ===> Total Chemistry                     155.557
  => WRF                                  1849.290
  ===> Total WRF-GC                       2004.847
 max optd  1.9364301E+31
 max taucldi  2.0132518E-05
 max taucldw  2.7989666E-04
 Switching is not necessary as we are already
 in the right domain!
 GIGC_Chunk_Run: Running for in-PET grid #           1
 GIGC_Chunk_Run: Received new grid IM, JM, LM =          15           9
          49
 =================================================
 W R F - G C   T I M E R S
    Domain           1 (Units: s)
 =================================================
  => Coupler Component                       2.975
   -- Physics & Parameterization             0.708
   -- Diagnostics Out                        0.000
  => GEOS-Chem Column                      153.631
  ===> Total Chemistry                     156.606
  => WRF                                  1867.446
  ===> Total WRF-GC                       2024.052
 max optd  1.9364301E+31
 max taucldi  2.2250681E-05
 max taucldw  3.0669663E-04
 Switching is not necessary as we are already
 in the right domain!
 GIGC_Chunk_Run: Running for in-PET grid #           1
 GIGC_Chunk_Run: Received new grid IM, JM, LM =          15           9
          49
 =================================================
 W R F - G C   T I M E R S
    Domain           1 (Units: s)
 =================================================
  => Coupler Component                       3.014
   -- Physics & Parameterization             0.717
   -- Diagnostics Out                        0.000
  => GEOS-Chem Column                      154.667
  ===> Total Chemistry                     157.681
  => WRF                                  1885.772
  ===> Total WRF-GC                       2043.453
 max optd  1.9364301E+31
 max taucldi  2.4484787E-05
 max taucldw  3.3324759E-04
 Switching is not necessary as we are already
 in the right domain!
 GIGC_Chunk_Run: Running for in-PET grid #           1
 GIGC_Chunk_Run: Received new grid IM, JM, LM =          15           9
          49
 =================================================
 W R F - G C   T I M E R S
    Domain           1 (Units: s)
 =================================================
  => Coupler Component                       3.057
[...]
  => GEOS-Chem Column                      200.392
  ===> Total Chemistry                     205.167
  => WRF                                  2705.507
  ===> Total WRF-GC                       2910.674
 HOURLY EMISSIONS UPDATE TIME    36000.0       0.0
mediation_integrate: med_read_wrf_chem_emissions: Read emissions for time 2018-01-01_10:00:00
 max optd  1.9364301E+31
 max taucldi  3.3170745E-05
 max taucldw  2.7303872E-04
 Switching is not necessary as we are already
 in the right domain!
 GIGC_Chunk_Run: Running for in-PET grid #           1
 GIGC_Chunk_Run: Received new grid IM, JM, LM =          15           9
          49
 =================================================
 W R F - G C   T I M E R S
    Domain           1 (Units: s)
 =================================================
  => Coupler Component                       4.815
   -- Physics & Parameterization             1.155
   -- Diagnostics Out                        0.000
  => GEOS-Chem Column                      201.435
  ===> Total Chemistry                     206.249
  => WRF                                  2723.753
  ===> Total WRF-GC                       2930.002
 max optd  1.9364301E+31
 max taucldi  3.1341573E-05
 max taucldw  2.5836719E-04
 Switching is not necessary as we are already
 in the right domain!
 GIGC_Chunk_Run: Running for in-PET grid #           1
 GIGC_Chunk_Run: Received new grid IM, JM, LM =          15           9
          49
 =================================================
 W R F - G C   T I M E R S
    Domain           1 (Units: s)
 =================================================
  => Coupler Component                       4.860
   -- Physics & Parameterization             1.164
   -- Diagnostics Out                        0.000
  => GEOS-Chem Column                      202.482
  ===> Total Chemistry                     207.342
  => WRF                                  2741.907
  ===> Total WRF-GC                       2949.249
 max optd  1.9364301E+31
 max taucldi  2.9967239E-05
 max taucldw  2.4435343E-04
 Switching is not necessary as we are already
 in the right domain!
 GIGC_Chunk_Run: Running for in-PET grid #           1
 GIGC_Chunk_Run: Received new grid IM, JM, LM =          15           9
          49
 =================================================
 W R F - G C   T I M E R S
    Domain           1 (Units: s)
 =================================================
  => Coupler Component                       4.904
   -- Physics & Parameterization             1.174
   -- Diagnostics Out                        0.000
  => GEOS-Chem Column                      203.526
  ===> Total Chemistry                     208.430
  => WRF                                  2760.034
  ===> Total WRF-GC                       2968.465
 max optd  1.9364301E+31
 max taucldi  2.8720668E-05
 max taucldw  2.3042066E-04
 Switching is not necessary as we are already
 in the right domain!
 GIGC_Chunk_Run: Running for in-PET grid #           1
 GIGC_Chunk_Run: Received new grid IM, JM, LM =          15           9
          49
 =================================================
 W R F - G C   T I M E R S
    Domain           1 (Units: s)
 =================================================
  => Coupler Component                       4.945
   -- Physics & Parameterization             1.183
   -- Diagnostics Out                        0.000
  => GEOS-Chem Column                      204.576
  ===> Total Chemistry                     209.521
  => WRF                                  2778.283
  ===> Total WRF-GC                       2987.804
 max optd  1.9364301E+31
 max taucldi  2.7223448E-05
 max taucldw  2.1596528E-04
 Switching is not necessary as we are already
 in the right domain!
 GIGC_Chunk_Run: Running for in-PET grid #           1
 GIGC_Chunk_Run: Received new grid IM, JM, LM =          15           9
          49
 =================================================
 W R F - G C   T I M E R S
    Domain           1 (Units: s)
 =================================================
  => Coupler Component                       4.978
   -- Physics & Parameterization             1.193
   -- Diagnostics Out                        0.000
  => GEOS-Chem Column                      205.639
  ===> Total Chemistry                     210.616
  => WRF                                  2796.498
  ===> Total WRF-GC                       3007.115
 max optd  1.9364301E+31
 max taucldi  2.5269665E-05
 max taucldw  2.0069585E-04
 Switching is not necessary as we are already
 in the right domain!
 GIGC_Chunk_Run: Running for in-PET grid #           1
 GIGC_Chunk_Run: Received new grid IM, JM, LM =          15           9
          49
 =================================================
 W R F - G C   T I M E R S
    Domain           1 (Units: s)
 =================================================
  => Coupler Component                       5.010
   -- Physics & Parameterization             1.202
   -- Diagnostics Out                        0.000
  => GEOS-Chem Column                      206.694
  ===> Total Chemistry                     211.704
  => WRF                                  2814.593
  ===> Total WRF-GC                       3026.297
 max optd  1.9364301E+31
 max taucldi  2.2868737E-05
 max taucldw  1.8534029E-04
 Switching is not necessary as we are already
 in the right domain!
 GIGC_Chunk_Run: Running for in-PET grid #           1
 GIGC_Chunk_Run: Received new grid IM, JM, LM =          15           9
          49
 =================================================
 W R F - G C   T I M E R S
    Domain           1 (Units: s)
 =================================================
  => Coupler Component                       5.053
   -- Physics & Parameterization             1.212
   -- Diagnostics Out                        0.000
  => GEOS-Chem Column                      207.745
  ===> Total Chemistry                     212.798
  => WRF                                  2832.767
  ===> Total WRF-GC                       3045.565
 max optd  1.9364301E+31
 max taucldi  2.0192063E-05
 max taucldw  1.7122409E-04
 Switching is not necessary as we are already
 in the right domain!
 GIGC_Chunk_Run: Running for in-PET grid #           1
 GIGC_Chunk_Run: Received new grid IM, JM, LM =          15           9
          49
 =================================================
 W R F - G C   T I M E R S
    Domain           1 (Units: s)
 =================================================
  => Coupler Component                       5.085
   -- Physics & Parameterization             1.221
   -- Diagnostics Out                        0.000
  => GEOS-Chem Column                      208.803
  ===> Total Chemistry                     213.889
  => WRF                                  2850.950
  ===> Total WRF-GC                       3064.838
 max optd  1.9364301E+31
 max taucldi  1.7511882E-05
 max taucldw  1.5931246E-04
 Switching is not necessary as we are already
 in the right domain!
 GIGC_Chunk_Run: Running for in-PET grid #           1
 GIGC_Chunk_Run: Received new grid IM, JM, LM =          15           9
          49
 =================================================
 W R F - G C   T I M E R S
    Domain           1 (Units: s)
 =================================================
  => Coupler Component                       5.122
   -- Physics & Parameterization             1.231
   -- Diagnostics Out                        0.000
  => GEOS-Chem Column                      209.841
  ===> Total Chemistry                     214.962
  => WRF                                  2869.071
  ===> Total WRF-GC                       3084.033
 max optd  1.9364301E+31
 max taucldi  1.5057029E-05
 max taucldw  1.4991951E-04
 Switching is not necessary as we are already
 in the right domain!
 GIGC_Chunk_Run: Running for in-PET grid #           1
 GIGC_Chunk_Run: Received new grid IM, JM, LM =          15           9
          49
 =================================================
 W R F - G C   T I M E R S
    Domain           1 (Units: s)
 =================================================
  => Coupler Component                       5.167
   -- Physics & Parameterization             1.240
   -- Diagnostics Out                        0.000
  => GEOS-Chem Column                      210.870
  ===> Total Chemistry                     216.038
  => WRF                                  2887.301
  ===> Total WRF-GC                       3103.339
 max optd  1.9364301E+31
 max taucldi  1.2896799E-05
 max taucldw  1.4270000E-04
 Switching is not necessary as we are already
 in the right domain!
 GIGC_Chunk_Run: Running for in-PET grid #           1
 GIGC_Chunk_Run: Received new grid IM, JM, LM =          15           9
          49
 =================================================
 W R F - G C   T I M E R S
    Domain           1 (Units: s)
 =================================================
  => Coupler Component                       5.206
   -- Physics & Parameterization             1.249
   -- Diagnostics Out                        0.000
  => GEOS-Chem Column                      211.922
  ===> Total Chemistry                     217.127
  => WRF                                  2905.474
  ===> Total WRF-GC                       3122.601
 max optd  1.9364301E+31
 max taucldi  1.1246726E-05
 max taucldw  1.3692904E-04
 Switching is not necessary as we are already
 in the right domain!
 GIGC_Chunk_Run: Running for in-PET grid #           1
 GIGC_Chunk_Run: Received new grid IM, JM, LM =          15           9
          49
 =================================================
 W R F - G C   T I M E R S
    Domain           1 (Units: s)
 =================================================
  => Coupler Component                       5.240
   -- Physics & Parameterization             1.259
   -- Diagnostics Out                        0.000
  => GEOS-Chem Column                      212.982
  ===> Total Chemistry                     218.223
  => WRF                                  2923.697
  ===> Total WRF-GC                       3141.919
 HOURLY EMISSIONS UPDATE TIME    39600.0       0.0
mediation_integrate: med_read_wrf_chem_emissions: Read emissions for time 2018-01-01_11:00:00
 max optd  1.9364301E+31
 max taucldi  1.0037898E-05
 max taucldw  1.3192491E-04
 Switching is not necessary as we are already
 in the right domain!
 GIGC_Chunk_Run: Running for in-PET grid #           1
 GIGC_Chunk_Run: Received new grid IM, JM, LM =          15           9
          49
 =================================================
 W R F - G C   T I M E R S
    Domain           1 (Units: s)
 =================================================
  => Coupler Component                       5.279
   -- Physics & Parameterization             1.269
   -- Diagnostics Out                        0.000
  => GEOS-Chem Column                      214.014
  ===> Total Chemistry                     219.294
  => WRF                                  2941.865
  ===> Total WRF-GC                       3161.159
 max optd  1.9364301E+31
 max taucldi  9.1895226E-06
 max taucldw  1.2740435E-04
 Switching is not necessary as we are already
 in the right domain!
 GIGC_Chunk_Run: Running for in-PET grid #           1
 GIGC_Chunk_Run: Received new grid IM, JM, LM =          15           9
          49
 =================================================
 W R F - G C   T I M E R S
    Domain           1 (Units: s)
 =================================================
  => Coupler Component                       5.316
   -- Physics & Parameterization             1.278
   -- Diagnostics Out                        0.000
  => GEOS-Chem Column                      215.056
  ===> Total Chemistry                     220.372
  => WRF                                  2960.027
  ===> Total WRF-GC                       3180.399
 max optd  1.9364301E+31
 max taucldi  8.5990387E-06
 max taucldw  1.2350747E-04
 Switching is not necessary as we are already
 in the right domain!
 GIGC_Chunk_Run: Running for in-PET grid #           1
 GIGC_Chunk_Run: Received new grid IM, JM, LM =          15           9
          49
 =================================================
 W R F - G C   T I M E R S
    Domain           1 (Units: s)
 =================================================
  => Coupler Component                       5.356
   -- Physics & Parameterization             1.287
   -- Diagnostics Out                        0.000
  => GEOS-Chem Column                      216.078
  ===> Total Chemistry                     221.434
  => WRF                                  2978.253
  ===> Total WRF-GC                       3199.687
 max optd  1.9364301E+31
 max taucldi  8.1740391E-06
 max taucldw  1.2037838E-04
 Switching is not necessary as we are already
 in the right domain!
 GIGC_Chunk_Run: Running for in-PET grid #           1
 GIGC_Chunk_Run: Received new grid IM, JM, LM =          15           9
          49
 =================================================
 W R F - G C   T I M E R S
    Domain           1 (Units: s)
 =================================================
  => Coupler Component                       5.403
   -- Physics & Parameterization             1.297
   -- Diagnostics Out                        0.000
  => GEOS-Chem Column                      217.101
  ===> Total Chemistry                     222.504
  => WRF                                  2996.568
  ===> Total WRF-GC                       3219.073
 max optd  1.9364301E+31
 max taucldi  8.0140699E-06
 max taucldw  1.1790756E-04
 Switching is not necessary as we are already
 in the right domain!
 GIGC_Chunk_Run: Running for in-PET grid #           1
 GIGC_Chunk_Run: Received new grid IM, JM, LM =          15           9
          49
 =================================================
 W R F - G C   T I M E R S
    Domain           1 (Units: s)
 =================================================
  => Coupler Component                       5.445
   -- Physics & Parameterization             1.306
   -- Diagnostics Out                        0.000
  => GEOS-Chem Column                      218.117
  ===> Total Chemistry                     223.562
  => WRF                                  3015.009
  ===> Total WRF-GC                       3238.571
 max optd  1.9364301E+31
 max taucldi  7.9175643E-06
 max taucldw  1.1562932E-04
 Switching is not necessary as we are already
 in the right domain!
 GIGC_Chunk_Run: Running for in-PET grid #           1
 GIGC_Chunk_Run: Received new grid IM, JM, LM =          15           9
          49
 =================================================
 W R F - G C   T I M E R S
    Domain           1 (Units: s)
 =================================================
  => Coupler Component                       5.481
   -- Physics & Parameterization             1.316
   -- Diagnostics Out                        0.000
  => GEOS-Chem Column                      219.144
  ===> Total Chemistry                     224.625
  => WRF                                  3033.460
  ===> Total WRF-GC                       3258.085
 max optd  1.9364301E+31
 max taucldi  7.8460234E-06
 max taucldw  1.1346040E-04
 Switching is not necessary as we are already
 in the right domain!
 GIGC_Chunk_Run: Running for in-PET grid #           1
 GIGC_Chunk_Run: Received new grid IM, JM, LM =          15           9
          49
 =================================================
 W R F - G C   T I M E R S
    Domain           1 (Units: s)
 =================================================
  => Coupler Component                       5.523
   -- Physics & Parameterization             1.326
   -- Diagnostics Out                        0.000
  => GEOS-Chem Column                      220.162
  ===> Total Chemistry                     225.685
  => WRF                                  3052.016
  ===> Total WRF-GC                       3277.702
 max optd  1.9364301E+31
 max taucldi  7.9512065E-06
 max taucldw  1.1130312E-04
 Switching is not necessary as we are already
 in the right domain!
 GIGC_Chunk_Run: Running for in-PET grid #           1
 GIGC_Chunk_Run: Received new grid IM, JM, LM =          15           9
          49
 =================================================
 W R F - G C   T I M E R S
    Domain           1 (Units: s)
 =================================================
  => Coupler Component                       5.563
   -- Physics & Parameterization             1.335
   -- Diagnostics Out                        0.000
  => GEOS-Chem Column                      221.193
  ===> Total Chemistry                     226.755
  => WRF                                  3070.638
  ===> Total WRF-GC                       3297.394
 max optd  1.9364301E+31
 max taucldi  8.0713262E-06
 max taucldw  1.0909844E-04
 Switching is not necessary as we are already
 in the right domain!
 GIGC_Chunk_Run: Running for in-PET grid #           1
 GIGC_Chunk_Run: Received new grid IM, JM, LM =          15           9
          49
 =================================================
 W R F - G C   T I M E R S
    Domain           1 (Units: s)
 =================================================
  => Coupler Component                       5.603
   -- Physics & Parameterization             1.344
   -- Diagnostics Out                        0.000
  => GEOS-Chem Column                      222.211
  ===> Total Chemistry                     227.813
  => WRF                                  3089.347
  ===> Total WRF-GC                       3317.161
 max optd  1.9364301E+31
 max taucldi  8.2055676E-06
 max taucldw  1.0691350E-04
 Switching is not necessary as we are already
 in the right domain!
 GIGC_Chunk_Run: Running for in-PET grid #           1
 GIGC_Chunk_Run: Received new grid IM, JM, LM =          15           9
          49
 =================================================
 W R F - G C   T I M E R S
    Domain           1 (Units: s)
 =================================================
  => Coupler Component                       5.647
   -- Physics & Parameterization             1.353
   -- Diagnostics Out                        0.000
  => GEOS-Chem Column                      223.246
  ===> Total Chemistry                     228.893
  => WRF                                  3108.272
  ===> Total WRF-GC                       3337.165
 max optd  1.9364301E+31
 max taucldi  8.3542072E-06
 max taucldw  1.0497486E-04
 Switching is not necessary as we are already
 in the right domain!
 GIGC_Chunk_Run: Running for in-PET grid #           1
 GIGC_Chunk_Run: Received new grid IM, JM, LM =          15           9
          49
 =================================================
 W R F - G C   T I M E R S
    Domain           1 (Units: s)
 =================================================
  => Coupler Component                       5.685
   -- Physics & Parameterization             1.363
   -- Diagnostics Out                        0.000
  => GEOS-Chem Column                      224.273
  ===> Total Chemistry                     229.959
  => WRF                                  3127.105
  ===> Total WRF-GC                       3357.064
 max optd  1.9364301E+31
 max taucldi  8.5175197E-06
 max taucldw  1.0330424E-04
 Switching is not necessary as we are already
 in the right domain!
 GIGC_Chunk_Run: Running for in-PET grid #           1
 GIGC_Chunk_Run: Received new grid IM, JM, LM =          15           9
          49
 =================================================
 W R F - G C   T I M E R S
    Domain           1 (Units: s)
 =================================================
  => Coupler Component                       5.727
   -- Physics & Parameterization             1.373
   -- Diagnostics Out                        0.000
  => GEOS-Chem Column                      225.287
  ===> Total Chemistry                     231.014
  => WRF                                  3145.860
  ===> Total WRF-GC                       3376.874
d01 2018-01-01_12:00:00 wrf: SUCCESS COMPLETE WRF
