taskid: 3558 hostname: ip-172-31-12-57
Quilting with   1 groups of   0 I/O tasks.
 Ntasks in X           64 , ntasks in Y           72
--- WARNING: traj_opt is zero, but num_traj is not zero; setting num_traj to zero.
--- NOTE: sst_update is 0, setting io_form_auxinput4 = 0 and auxinput4_interval = 0 for all domains
--- NOTE: grid_fdda is 0 for domain      1, setting gfdda interval and ending time to 0 for that domain.
--- NOTE: both grid_sfdda and pxlsm_soil_nudge are 0 for domain      1, setting sgfdda interval and ending time to 0 for that domain.
--- NOTE: obs_nudge_opt is 0 for domain      1, setting obs nudging interval and ending time to 0 for that domain.
--- NOTE: bl_pbl_physics /= 4, implies mfshconv must be 0, resetting
Need MYNN PBL for icloud_bl = 1, resetting to 0
*************************************
No physics suite selected.
Physics options will be used directly from the namelist.
*************************************
--- NOTE: RRTMG radiation is in use, setting:  levsiz=59, alevsiz=12, no_src_types=6
--- NOTE: num_soil_layers has been set to      4
WRF V3.9.1.1 MODEL
 *************************************
 Parent domain
 ids,ide,jds,jde            1         950           1         650
 ims,ime,jms,jme          554         582         490         512
 ips,ipe,jps,jpe          561         575         497         505
 *************************************
DYNAMICS OPTION: Eulerian Mass Coordinate
   alloc_space_field: domain            1 ,              203623800  bytes allocated
  med_initialdata_input: calling input_input
Max map factor in domain 1 =  1.40. Scale the dt in the model accordingly.
INPUT LandUse = "USGS"
 LANDUSE TYPE = "USGS" FOUND          33  CATEGORIES           2  SEASONS WATER CATEGORY =           16  SNOW CATEGORY =           24
INITIALIZE THREE Noah LSM RELATED TABLES
*****************************************************************
  __          _______  ______       _____  _____ _    _ _____
  \ \        / /  __ \|  ____|     / ____|/ ____| |  | |  __ \
   \ \  /\  / /| |__) | |__ ______| |  __| |    | |__| | |__) |
    \ \/  \/ / |  _  /|  __|______| | |_ | |    |  __  |  ___/
     \  /\  /  | | \ \| |         | |__| | |____| |  | | |
      \/  \/   |_|  \_\_|          \_____|\_____|_|  |_|_|
*****************************************************************
         WRF-GC MODEL, VERSION 1811.11 - WRF BINDINGS
 For errors, suggestions & feedback email linhaipeng@pku.edu.cn
*****************************************************************
    This is domain            1
 ### GIGC_Stateful_Mod: Root CPU, after READ_INPUT_FILE
  Linoz Data:  O3 climatology :                  z*=10, 12, ..., 58                             2.700E-08 1.083E-05
  Linoz Data:  Temperature climatology :         z*=10, 12, ..., 58                             1.859E+02 2.904E+02
  Linoz Data:  Column O3 above box climalology : z*=10, 12, ..., 58                             7.538E-02 3.770E+02
  Linoz Data:  P-L O3 climatology (mr/s):        z*=10, 12, ..., 58                            -1.590E-10 2.835E-11
  Linoz Data:  d(P-L)/dO3 (1/s) :                z*=10, 12, ..., 58                            -8.386E-04 7.556E-09
  Linoz Data:  d(P-L)/dT (mr/K) :                z*=10, 12, ..., 58                            -5.742E-12 4.615E-14
  Linoz Data:  d(P-L)/d(column O3) (mr/DU) :     z*=10, 12, ..., 58                            -1.921E-12 5.038E-10
 ### GIGC_Stateful_Mod: Root CPU, after LINOZ_READ
 %%%%%%%%% GIGC IN-PET GRID SWITCHING HACKS %%%%%%%%%
     (Not very) Proudly brought to you by hplin      
 Some debug information:
 ID:           1
 IM, JM, LM:          15           9          49  will be set as PAR
 Allocs: CMN T GC F
 RC at entry-point:           0
 %%%%%%%%%%%%%%%%%%%%%%%%%%%%%%%%%%%%%%%%%%%%%%%%%%%%
 No need to switch HcoState for ID           1
 Exit RC:            0
 %%%%%%%%%    FINISHED GIGC_Switch_Dims    %%%%%%%%%
 GIGC_Chunk_Init: Received new grid IM, JM, LM =          15           9
          49
     ### GIGC_INIT_SIMULATION: after Input_Opt% setups
     ### GIGC_INIT_SIMULATION: after GC_Init_All
     ### GIGC_INIT_SIMULATION: after GC_Init_Extra
     ### GIGC_INIT_SIMULATION: after INIT_FJX
 # GIGC_CHUNK_MOD: after SV save, ID =           1
 WRFGC chemics_init: Following information regarding Input_Opt% (for all doms)
 After domain           1
 HPC:  T
 LPRT:  F
 DoConv:  T
 DoDryDep:  T
 DoEmis:  T
 DoChem:  T
 DoTurb:  T
 DoWetDep:  T

 tropopause_init: DONE intialized domain            1

 mediation_integrate: med_read_wrf_chem_emissions: Open file wrfchemi_00z_d01
 HOURLY EMISSIONS UPDATE TIME        0.0       0.0
mediation_integrate: med_read_wrf_chem_emissions: Read emissions for time 2018-01-01_00:00:00
open_aux_u : error opening wrffirechemi_d01_2018-01-01_00:00:00 for reading. 100
open_aux_u : error opening wrfchemi_gocart_bg_d01 for reading. 100
d01 2018-01-01_00:00:00 Input data processed for aux input   8 for domain   1
open_aux_u : error opening wrfchemv_d01 for reading. 100
 Tile Strategy is not specified. Assuming 1D-Y
WRF TILE   1 IS    561 IE    575 JS    497 JE    505
WRF NUMBER OF TILES =   1
 max optd  2.9556591E+16
 max taucldi  0.0000000E+00
 max taucldw  0.0000000E+00
 =================================================
 W R F - G C   T I M E R S
    Domain           1 (Units: s)
 =================================================
  => Coupler Component                       0.030
   -- Physics & Parameterization             0.001
   -- Diagnostics Out                        0.000
  => GEOS-Chem Column                        0.000
  ===> Total Chemistry                       0.030
  => WRF                                     0.000
  ===> Total WRF-GC                          0.030
 max optd  2.9556591E+16
 max taucldi  1.0000007E-14
 max taucldw  1.0000007E-14
 %%%%%%%%% GIGC IN-PET GRID SWITCHING HACKS %%%%%%%%%
     (Not very) Proudly brought to you by hplin      
 Some debug information:
 ID:           1
 IM, JM, LM:          15           9          49  will be set as PAR
 Allocs: CMN T GC T
 RC at entry-point:           0
 %%%%%%%%%%%%%%%%%%%%%%%%%%%%%%%%%%%%%%%%%%%%%%%%%%%%
 No need to switch HcoState for ID           1
 Debug HcoState nSpc, NX, NY, NZ         163          15           9          49
 Exit RC:            0
 %%%%%%%%%    FINISHED GIGC_Switch_Dims    %%%%%%%%%
 GIGC_Chunk_Run: Running for in-PET grid #           1
 GIGC_Chunk_Run: Received new grid IM, JM, LM =          15           9
          49
HEMCO: Opening /fsx/HEMCO/BIOFUEL/v2014-07/biofuel.geos.4x5.nc
HEMCO: Opening /fsx/HEMCO/BROMINE/v2015-02/Bromocarb_Liang2010.nc
HEMCO: Opening /fsx/HEMCO/ACET/v2014-07/ACET_seawater.generic.1x1.nc
HEMCO: Opening /fsx/HEMCO/SOILNOX/v2014-07/DepReservoirDefault.nc
HEMCO: Opening /fsx/HEMCO/SOILNOX/v2014-07/soilNOx.landtype.generic.025x025.1L.nc
HEMCO: Opening /fsx/HEMCO/SOILNOX/v2014-07/soilNOx.climate.generic.05x05.nc
HEMCO: Opening /fsx/HEMCO/DUST_DEAD/v2014-07/dst_tibds.geos.4x5.nc
HEMCO: Opening /fsx/HEMCO/DUST_DEAD/v2014-07/GOCART_src_fn.geos.4x5.nc
HEMCO: Opening /fsx/HEMCO/MEGAN/v2018-05/MEGAN2.1_EF.geos.025x03125.nc
HEMCO: Opening /fsx/HEMCO/MEGAN/v2017-07/CLM4_PFT.geos.025x03125.nc
HEMCO: Opening /fsx/HEMCO/TIMEZONES/v2015-02/timezones_voronoi_1x1.nc
HEMCO: Opening /fsx/HEMCO/STRAT/v2015-01/Bry/GEOSCCM_Bry.200701.day.nc
HEMCO: Opening /fsx/HEMCO/STRAT/v2015-01/Bry/GEOSCCM_Bry.200701.night.nc
HEMCO: Opening /fsx/HEMCO/OMOC/v2018-01/OMOC.DJF.01x01.nc
HEMCO: Opening /fsx/HEMCO/OMOC/v2018-01/OMOC.MAM.01x01.nc
HEMCO: Opening /fsx/HEMCO/OMOC/v2018-01/OMOC.JJA.01x01.nc
HEMCO: Opening /fsx/HEMCO/OMOC/v2018-01/OMOC.SON.01x01.nc
HEMCO: Opening /fsx/HEMCO/AnnualScalar/v2014-07/AnnualScalar.geos.1x1.nc
HEMCO: Opening /fsx/HEMCO/EDGARv42/v2015-02/NO/EDGAR_hourly_NOxScal.nc
HEMCO: Opening /fsx/HEMCO/MASKS/v2018-09/EMEP_mask.geos.1x1.20151222.nc
HEMCO: Opening /fsx/HEMCO/MASKS/v2018-09/Canada_mask.geos.1x1.nc
HEMCO: Opening /fsx/HEMCO/MASKS/v2018-09/SE_Asia_mask.generic.1x1.nc
HEMCO: Opening /fsx/HEMCO/MASKS/v2018-09/MIX_Asia_mask.generic.025x025.nc
HEMCO: Opening /fsx/HEMCO/MASKS/v2018-09/CONUS_Mask.01x01.nc
HEMCO: Opening /fsx/HEMCO/MASKS/v2018-09/AF_LANDMASK.geos.05x0666.global.nc
HEMCO: Opening /fsx/HEMCO/MASKS/v2018-09/China_mask.generic.1x1.nc
HEMCO: Opening /fsx/HEMCO/MASKS/v2018-09/India_mask.generic.1x1.nc
HEMCO: Opening /fsx/HEMCO/AnnualScalar/v2014-07/AnnualScalar.geos.1x1.nc
HEMCO: Opening /fsx/HEMCO/NH3/v2014-07/NH3_geos.4x5.nc
HEMCO: Opening /fsx/HEMCO/NH3/v2018-04/NH3_Arctic_seabirds.nc
HEMCO: Opening /fsx/HEMCO/CEDS/v2018-08/2014/NO-em-anthro_CMIP_CEDS_2014.nc
HEMCO: Opening /fsx/HEMCO/CEDS/v2018-08/2014/CO-em-anthro_CMIP_CEDS_2014.nc
HEMCO: Opening /fsx/HEMCO/CEDS/v2018-08/2014/SO2-em-anthro_CMIP_CEDS_2014.nc
HEMCO: Opening /fsx/HEMCO/CEDS/v2018-08/2014/NH3-em-anthro_CMIP_CEDS_2014.nc
HEMCO: Opening /fsx/HEMCO/CEDS/v2018-08/2014/BC-em-anthro_CMIP_CEDS_2014.nc
HEMCO: Opening /fsx/HEMCO/CEDS/v2018-08/2014/OC-em-anthro_CMIP_CEDS_2014.nc
HEMCO: Opening /fsx/HEMCO/CEDS/v2018-08/2014/EOH-em-anthro_CMIP_CEDS_2014.nc
HEMCO: Opening /fsx/HEMCO/CEDS/v2018-08/2014/C2H6-em-anthro_CMIP_CEDS_2014.nc
HEMCO: Opening /fsx/HEMCO/CEDS/v2018-08/2014/C3H8-em-anthro_CMIP_CEDS_2014.nc
HEMCO: Opening /fsx/HEMCO/CEDS/v2018-08/2014/ALK4_butanes-em-anthro_CMIP_CEDS_2014.nc
HEMCO: Opening /fsx/HEMCO/CEDS/v2018-08/2014/ALK4_pentanes-em-anthro_CMIP_CEDS_2014.nc
HEMCO: Opening /fsx/HEMCO/CEDS/v2018-08/2014/ALK4_hexanes-em-anthro_CMIP_CEDS_2014.nc
HEMCO: Opening /fsx/HEMCO/CEDS/v2018-08/2014/PRPE-em-anthro_CMIP_CEDS_2014.nc
HEMCO: Opening /fsx/HEMCO/CEDS/v2018-08/2014/BENZ-em-anthro_CMIP_CEDS_2014.nc
HEMCO: Opening /fsx/HEMCO/CEDS/v2018-08/2014/TOLU-em-anthro_CMIP_CEDS_2014.nc
HEMCO: Opening /fsx/HEMCO/CEDS/v2018-08/2014/XYLE-em-anthro_CMIP_CEDS_2014.nc
HEMCO: Opening /fsx/HEMCO/CEDS/v2018-08/2014/CH2O-em-anthro_CMIP_CEDS_2014.nc
HEMCO: Opening /fsx/HEMCO/CEDS/v2018-08/2014/ALD2-em-anthro_CMIP_CEDS_2014.nc
HEMCO: Opening /fsx/HEMCO/CEDS/v2018-08/2014/MEK-em-anthro_CMIP_CEDS_2014.nc
HEMCO: Opening /fsx/HEMCO/CEDS/v2018-08/2014/HCOOH-em-anthro_CMIP_CEDS_2014.nc
HEMCO: Opening /fsx/HEMCO/C2H6_2010/v2017-05/C2H6_global_anth_biof.201001.nc
HEMCO: Opening /fsx/HEMCO/NEI2011/v2017-02-MM/01/NEI11_0.1x0.1_201101_monmean.nc
HEMCO: Opening /fsx/HEMCO/NEI2011/v2017-02-MM/01/NEI11_0.1x0.1_201101_monmean_egu.nc
HEMCO: Opening /fsx/HEMCO/NEI2011/v2017-02-MM/01/NEI11_0.1x0.1_201101_monmean_egupk.nc
HEMCO: Opening /fsx/HEMCO/NEI2011/v2017-02-MM/01/NEI11_0.1x0.1_201101_monmean_oilgas.nc
HEMCO: Opening /fsx/HEMCO/NEI2011/v2017-02-MM/01/NEI11_0.1x0.1_201101_monmean_othpt.nc
HEMCO: Opening /fsx/HEMCO/NEI2011/v2017-02-MM/01/NEI11_0.1x0.1_201101_monmean_ptnonipm.nc
HEMCO: Opening /fsx/HEMCO/IODINE/v2017-09/CH3I_monthly_emissions_Ordonez_2012_COARDS.nc
HEMCO: Opening /fsx/HEMCO/IODINE/v2017-09/CH2I2_monthly_emissions_Ordonez_2012_COARDS.nc
HEMCO: Opening /fsx/HEMCO/IODINE/v2017-09/CH2ICl_monthly_emissions_Ordonez_2012_COARDS.nc
HEMCO: Opening /fsx/HEMCO/IODINE/v2017-09/CH2IBr_monthly_emissions_Ordonez_2012_COARDS.nc
HEMCO: Opening /fsx/HEMCO/CEDS/v2018-08/2014/CO-em-anthro_CMIP_CEDS_2014.nc
HEMCO: Opening /fsx/HEMCO/CEDS/v2018-08/2014/SO2-em-anthro_CMIP_CEDS_2014.nc
HEMCO: Opening /fsx/HEMCO/CEDS/v2018-08/2014/NH3-em-anthro_CMIP_CEDS_2014.nc
HEMCO: Opening /fsx/HEMCO/CEDS/v2018-08/2014/BC-em-anthro_CMIP_CEDS_2014.nc
HEMCO: Opening /fsx/HEMCO/CEDS/v2018-08/2014/OC-em-anthro_CMIP_CEDS_2014.nc
HEMCO: Opening /fsx/HEMCO/CEDS/v2018-08/2014/EOH-em-anthro_CMIP_CEDS_2014.nc
HEMCO: Opening /fsx/HEMCO/CEDS/v2018-08/2014/C2H6-em-anthro_CMIP_CEDS_2014.nc
HEMCO: Opening /fsx/HEMCO/CEDS/v2018-08/2014/C3H8-em-anthro_CMIP_CEDS_2014.nc
HEMCO: Opening /fsx/HEMCO/CEDS/v2018-08/2014/ALK4_butanes-em-anthro_CMIP_CEDS_2014.nc
HEMCO: Opening /fsx/HEMCO/CEDS/v2018-08/2014/ALK4_pentanes-em-anthro_CMIP_CEDS_2014.nc
HEMCO: Opening /fsx/HEMCO/CEDS/v2018-08/2014/ALK4_hexanes-em-anthro_CMIP_CEDS_2014.nc
HEMCO: Opening /fsx/HEMCO/CEDS/v2018-08/2014/PRPE-em-anthro_CMIP_CEDS_2014.nc
HEMCO: Opening /fsx/HEMCO/CEDS/v2018-08/2014/BENZ-em-anthro_CMIP_CEDS_2014.nc
HEMCO: Opening /fsx/HEMCO/CEDS/v2018-08/2014/TOLU-em-anthro_CMIP_CEDS_2014.nc
HEMCO: Opening /fsx/HEMCO/CEDS/v2018-08/2014/XYLE-em-anthro_CMIP_CEDS_2014.nc
HEMCO: Opening /fsx/HEMCO/CEDS/v2018-08/2014/CH2O-em-anthro_CMIP_CEDS_2014.nc
HEMCO: Opening /fsx/HEMCO/CEDS/v2018-08/2014/ALD2-em-anthro_CMIP_CEDS_2014.nc
HEMCO: Opening /fsx/HEMCO/CEDS/v2018-08/2014/MEK-em-anthro_CMIP_CEDS_2014.nc
HEMCO: Opening /fsx/HEMCO/CEDS/v2018-08/2014/HCOOH-em-anthro_CMIP_CEDS_2014.nc
HEMCO: Opening /fsx/HEMCO/CEDS/v2018-08/2014/NO-em-anthro_CMIP_CEDS_2014.nc
HEMCO: Opening /fsx/HEMCO/AEIC/v2015-01/AEIC.47L.gen.1x1.nc
HEMCO: Opening /fsx/HEMCO/ALD2/v2017-03/resp.geos.2x25.nc
HEMCO: Opening /fsx/HEMCO/DMS/v2015-07/DMS_lana.geos.1x1.nc
HEMCO: Opening /fsx/HEMCO/ALD2/v2017-03/ALD2_seawater.geos.2x25.nc
HEMCO: Opening /fsx/HEMCO/DUST_DEAD/v2014-07/dst_tvbds.geos.4x5.nc
HEMCO: Opening /fsx/HEMCO/DUST_DEAD/v2018-04/PM25FINE_ECLIPSE_2015.geos.2x25.nc
HEMCO: Opening /fsx/HEMCO/SOA/v2014-07/NVOC.geos.1x1.nc
HEMCO: Opening /fsx/HEMCO/GFED4/v2015-10/2016/GFED4_gen.025x025.201601.nc
HEMCO: Opening /fsx/HEMCO/UVALBEDO/v2015-03/uvalbedo.geos.2x25.nc
HEMCO: Opening /fsx/HEMCO/GMI/v2015-02/gmi.clim.ACET.geos5.2x25.nc
HEMCO: Opening /fsx/HEMCO/GMI/v2015-02/gmi.clim.ACTA.geos5.2x25.nc
HEMCO: Opening /fsx/HEMCO/GMI/v2015-02/gmi.clim.ALD2.geos5.2x25.nc
HEMCO: Opening /fsx/HEMCO/GMI/v2015-02/gmi.clim.ALK4.geos5.2x25.nc
HEMCO: Opening /fsx/HEMCO/GMI/v2015-02/gmi.clim.C2H6.geos5.2x25.nc
HEMCO: Opening /fsx/HEMCO/GMI/v2015-02/gmi.clim.C3H8.geos5.2x25.nc
HEMCO: Opening /fsx/HEMCO/GMI/v2015-02/gmi.clim.CCl4.geos5.2x25.nc
HEMCO: Opening /fsx/HEMCO/GMI/v2015-02/gmi.clim.CF2Cl2.geos5.2x25.nc
HEMCO: Opening /fsx/HEMCO/GMI/v2015-02/gmi.clim.CF2ClBr.geos5.2x25.nc
HEMCO: Opening /fsx/HEMCO/GMI/v2015-02/gmi.clim.CFC113.geos5.2x25.nc
HEMCO: Opening /fsx/HEMCO/GMI/v2015-02/gmi.clim.CFC114.geos5.2x25.nc
HEMCO: Opening /fsx/HEMCO/GMI/v2015-02/gmi.clim.CFC115.geos5.2x25.nc
HEMCO: Opening /fsx/HEMCO/GMI/v2015-02/gmi.clim.CFCl3.geos5.2x25.nc
HEMCO: Opening /fsx/HEMCO/GMI/v2015-02/gmi.clim.CH2O.geos5.2x25.nc
HEMCO: Opening /fsx/HEMCO/GMI/v2015-02/gmi.clim.CH3CCl3.geos5.2x25.nc
HEMCO: Opening /fsx/HEMCO/GMI/v2015-02/gmi.clim.CH3Cl.geos5.2x25.nc
HEMCO: Opening /fsx/HEMCO/GMI/v2015-02/gmi.clim.CH4.geos5.2x25.nc
HEMCO: Opening /fsx/HEMCO/GMI/v2015-02/gmi.clim.CO.geos5.2x25.nc
HEMCO: Opening /fsx/HEMCO/GMI/v2015-02/gmi.clim.Cl.geos5.2x25.nc
HEMCO: Opening /fsx/HEMCO/GMI/v2015-02/gmi.clim.Cl2.geos5.2x25.nc
HEMCO: Opening /fsx/HEMCO/GMI/v2015-02/gmi.clim.Cl2O2.geos5.2x25.nc
HEMCO: Opening /fsx/HEMCO/GMI/v2015-02/gmi.clim.ClO.geos5.2x25.nc
HEMCO: Opening /fsx/HEMCO/GMI/v2015-02/gmi.clim.EOH.geos5.2x25.nc
HEMCO: Opening /fsx/HEMCO/GMI/v2015-02/gmi.clim.GLYC.geos5.2x25.nc
HEMCO: Opening /fsx/HEMCO/GMI/v2015-02/gmi.clim.GLYX.geos5.2x25.nc
HEMCO: Opening /fsx/HEMCO/GMI/v2015-02/gmi.clim.H2402.geos5.2x25.nc
HEMCO: Opening /fsx/HEMCO/GMI/v2015-02/gmi.clim.H2O.geos5.2x25.nc
HEMCO: Opening /fsx/HEMCO/GMI/v2015-02/gmi.clim.H2O2.geos5.2x25.nc
HEMCO: Opening /fsx/HEMCO/GMI/v2015-02/gmi.clim.HAC.geos5.2x25.nc
HEMCO: Opening /fsx/HEMCO/GMI/v2015-02/gmi.clim.HCFC141b.geos5.2x25.nc
HEMCO: Opening /fsx/HEMCO/GMI/v2015-02/gmi.clim.HCFC142b.geos5.2x25.nc
HEMCO: Opening /fsx/HEMCO/GMI/v2015-02/gmi.clim.HCFC22.geos5.2x25.nc
HEMCO: Opening /fsx/HEMCO/GMI/v2015-02/gmi.clim.HCOOH.geos5.2x25.20170108.nc
HEMCO: Opening /fsx/HEMCO/GMI/v2015-02/gmi.clim.HCl.geos5.2x25.nc
HEMCO: Opening /fsx/HEMCO/GMI/v2015-02/gmi.clim.HNO2.geos5.2x25.nc
HEMCO: Opening /fsx/HEMCO/GMI/v2015-02/gmi.clim.HNO3.geos5.2x25.nc
HEMCO: Opening /fsx/HEMCO/GMI/v2015-02/gmi.clim.HNO4.geos5.2x25.nc
HEMCO: Opening /fsx/HEMCO/GMI/v2015-02/gmi.clim.HOCl.geos5.2x25.nc
HEMCO: Opening /fsx/HEMCO/GMI/v2015-02/gmi.clim.ISN1.geos5.2x25.nc
HEMCO: Opening /fsx/HEMCO/GMI/v2015-02/gmi.clim.ISOP.geos5.2x25.nc
HEMCO: Opening /fsx/HEMCO/GMI/v2015-02/gmi.clim.MACR.geos5.2x25.nc
HEMCO: Opening /fsx/HEMCO/GMI/v2015-02/gmi.clim.MAP.geos5.2x25.nc
HEMCO: Opening /fsx/HEMCO/GMI/v2015-02/gmi.clim.MEK.geos5.2x25.nc
HEMCO: Opening /fsx/HEMCO/GMI/v2015-02/gmi.clim.MGLY.geos5.2x25.nc
HEMCO: Opening /fsx/HEMCO/GMI/v2015-02/gmi.clim.MP.geos5.2x25.nc
HEMCO: Opening /fsx/HEMCO/GMI/v2015-02/gmi.clim.MVK.geos5.2x25.nc
HEMCO: Opening /fsx/HEMCO/GMI/v2015-02/gmi.clim.N2O.geos5.2x25.nc
HEMCO: Opening /fsx/HEMCO/GMI/v2015-02/gmi.clim.N2O5.geos5.2x25.nc
HEMCO: Opening /fsx/HEMCO/GMI/v2015-02/gmi.clim.NO.geos5.2x25.nc
HEMCO: Opening /fsx/HEMCO/GMI/v2015-02/gmi.clim.NO2.geos5.2x25.nc
HEMCO: Opening /fsx/HEMCO/GMI/v2015-02/gmi.clim.NO3.geos5.2x25.nc
HEMCO: Opening /fsx/HEMCO/GMI/v2015-02/gmi.clim.O3.geos5.2x25.nc
HEMCO: Opening /fsx/HEMCO/GMI/v2015-02/gmi.clim.OClO.geos5.2x25.nc
HEMCO: Opening /fsx/HEMCO/GMI/v2015-02/gmi.clim.PAN.geos5.2x25.nc
HEMCO: Opening /fsx/HEMCO/GMI/v2015-02/gmi.clim.NPMN.geos5.2x25.nc
HEMCO: Opening /fsx/HEMCO/GMI/v2015-02/gmi.clim.IPMN.geos5.2x25.nc
HEMCO: Opening /fsx/HEMCO/GMI/v2015-02/gmi.clim.PPN.geos5.2x25.nc
HEMCO: Opening /fsx/HEMCO/GMI/v2015-02/gmi.clim.PRPE.geos5.2x25.nc
HEMCO: Opening /fsx/HEMCO/GMI/v2015-02/gmi.clim.R4N2.geos5.2x25.nc
HEMCO: Opening /fsx/HEMCO/GMI/v2015-02/gmi.clim.RCHO.geos5.2x25.nc
HEMCO: Opening /fsx/HEMCO/GMI/v2015-02/gmi.clim.RIPA.geos5.2x25.nc
HEMCO: Opening /fsx/HEMCO/GMI/v2015-02/gmi.clim.RIPB.geos5.2x25.nc
HEMCO: Opening /fsx/HEMCO/GMI/v2015-02/gmi.clim.RIPD.geos5.2x25.nc
HEMCO: Opening /fsx/HEMCO/GMI/v2015-02/gmi.clim.OH.geos5.2x25.nc
HEMCO: Opening /fsx/HEMCO/NOAA_GMD/v2018-01/monthly.gridded.surface.methane.1979-2020.1x1.nc
HEMCO: Opening /fsx/HEMCO/GEIA/v2014-07/GEIA_monthscal.generic.1x1.nc
HEMCO: Opening /fsx/HEMCO/EMEP/v2015-03/EMEP.Seasonal.geos.1x1.nc
HEMCO: Opening /fsx/HEMCO/BROMINE/v2015-02/BromoCarb_Season.nc
HEMCO: Opening /fsx/HEMCO/EDGARv43/v2016-11/EDGAR_v43.Seasonal.1x1.nc
HEMCO: Opening /fsx/HEMCO/NEI2005/v2014-09/scaling/NEI99.dow.geos.1x1.nc
HEMCO: Opening /fsx/HEMCO/VOLCANO/v2015-02/2009/volc_so2_gen.1x1.47L.200901.nc
HEMCO: Opening /fsx/HEMCO/SOILNOX/v2014-07/soilNOx.fert_res.generic.05x05.nc
 vdinti: pbl height will be limited to bottom           25  model levels. top is
     431.250100000000       hpa
 =================================================
 W R F - G C   T I M E R S
    Domain           1 (Units: s)
 =================================================
  => Coupler Component                       0.058
   -- Physics & Parameterization             0.010
   -- Diagnostics Out                        0.000
  => GEOS-Chem Column                      129.978
  ===> Total Chemistry                     130.036
  => WRF                                    17.406
  ===> Total WRF-GC                        147.442
 max optd  1.9364301E+31
 max taucldi  2.6331589E-08
 max taucldw  4.0140253E-06
 Switching is not necessary as we are already
 in the right domain!
 GIGC_Chunk_Run: Running for in-PET grid #           1
 GIGC_Chunk_Run: Received new grid IM, JM, LM =          15           9
          49
 =================================================
 W R F - G C   T I M E R S
    Domain           1 (Units: s)
 =================================================
  => Coupler Component                       0.090
   -- Physics & Parameterization             0.019
   -- Diagnostics Out                        0.000
  => GEOS-Chem Column                      131.064
  ===> Total Chemistry                     131.154
  => WRF                                    61.016
  ===> Total WRF-GC                        192.170
 max optd  1.9364301E+31
 max taucldi  5.4058248E-08
 max taucldw  6.5235295E-06
 Switching is not necessary as we are already
 in the right domain!
 GIGC_Chunk_Run: Running for in-PET grid #           1
 GIGC_Chunk_Run: Received new grid IM, JM, LM =          15           9
          49
 =================================================
 W R F - G C   T I M E R S
    Domain           1 (Units: s)
 =================================================
  => Coupler Component                       0.121
   -- Physics & Parameterization             0.029
   -- Diagnostics Out                        0.000
  => GEOS-Chem Column                      132.110
  ===> Total Chemistry                     132.231
  => WRF                                    81.777
  ===> Total WRF-GC                        214.008
 max optd  1.9364301E+31
 max taucldi  8.4688224E-08
 max taucldw  8.6058044E-06
 Switching is not necessary as we are already
 in the right domain!
 GIGC_Chunk_Run: Running for in-PET grid #           1
 GIGC_Chunk_Run: Received new grid IM, JM, LM =          15           9
          49
 =================================================
 W R F - G C   T I M E R S
    Domain           1 (Units: s)
 =================================================
  => Coupler Component                       0.152
   -- Physics & Parameterization             0.038
   -- Diagnostics Out                        0.000
  => GEOS-Chem Column                      133.130
  ===> Total Chemistry                     133.281
  => WRF                                   100.823
  ===> Total WRF-GC                        234.105
 max optd  1.9364301E+31
 max taucldi  1.2052119E-07
 max taucldw  1.0516545E-05
 Switching is not necessary as we are already
 in the right domain!
 GIGC_Chunk_Run: Running for in-PET grid #           1
 GIGC_Chunk_Run: Received new grid IM, JM, LM =          15           9
          49
 =================================================
 W R F - G C   T I M E R S
    Domain           1 (Units: s)
 =================================================
  => Coupler Component                       0.183
   -- Physics & Parameterization             0.047
   -- Diagnostics Out                        0.000
  => GEOS-Chem Column                      134.134
  ===> Total Chemistry                     134.316
  => WRF                                   119.444
  ===> Total WRF-GC                        253.761
 max optd  1.9364301E+31
 max taucldi  1.5954124E-07
 max taucldw  1.2306200E-05
 Switching is not necessary as we are already
 in the right domain!
 GIGC_Chunk_Run: Running for in-PET grid #           1
 GIGC_Chunk_Run: Received new grid IM, JM, LM =          15           9
          49
 =================================================
 W R F - G C   T I M E R S
    Domain           1 (Units: s)
 =================================================
  => Coupler Component                       0.223
   -- Physics & Parameterization             0.056
   -- Diagnostics Out                        0.000
  => GEOS-Chem Column                      135.148
  ===> Total Chemistry                     135.371
  => WRF                                   137.958
  ===> Total WRF-GC                        273.328
 max optd  1.9364301E+31
 max taucldi  1.9849496E-07
 max taucldw  1.4009123E-05
 Switching is not necessary as we are already
 in the right domain!
 GIGC_Chunk_Run: Running for in-PET grid #           1
 GIGC_Chunk_Run: Received new grid IM, JM, LM =          15           9
          49
 =================================================
 W R F - G C   T I M E R S
    Domain           1 (Units: s)
 =================================================
  => Coupler Component                       0.263
   -- Physics & Parameterization             0.065
   -- Diagnostics Out                        0.000
  => GEOS-Chem Column                      136.162
  ===> Total Chemistry                     136.425
  => WRF                                   156.439
  ===> Total WRF-GC                        292.864
 max optd  1.9364301E+31
 max taucldi  2.3689869E-07
 max taucldw  1.5535974E-05
 Switching is not necessary as we are already
 in the right domain!
 GIGC_Chunk_Run: Running for in-PET grid #           1
 GIGC_Chunk_Run: Received new grid IM, JM, LM =          15           9
          49
 =================================================
 W R F - G C   T I M E R S
    Domain           1 (Units: s)
 =================================================
  => Coupler Component                       0.298
   -- Physics & Parameterization             0.074
   -- Diagnostics Out                        0.000
  => GEOS-Chem Column                      137.184
  ===> Total Chemistry                     137.482
  => WRF                                   174.851
  ===> Total WRF-GC                        312.333
 max optd  1.9364301E+31
 max taucldi  2.8739387E-07
 max taucldw  1.6731492E-05
 Switching is not necessary as we are already
 in the right domain!
 GIGC_Chunk_Run: Running for in-PET grid #           1
 GIGC_Chunk_Run: Received new grid IM, JM, LM =          15           9
          49
 =================================================
 W R F - G C   T I M E R S
    Domain           1 (Units: s)
 =================================================
  => Coupler Component                       0.336
   -- Physics & Parameterization             0.083
   -- Diagnostics Out                        0.000
  => GEOS-Chem Column                      138.203
  ===> Total Chemistry                     138.538
  => WRF                                   193.261
  ===> Total WRF-GC                        331.800
 max optd  1.9364301E+31
 max taucldi  3.3680848E-07
 max taucldw  1.7672694E-05
 Switching is not necessary as we are already
 in the right domain!
 GIGC_Chunk_Run: Running for in-PET grid #           1
 GIGC_Chunk_Run: Received new grid IM, JM, LM =          15           9
          49
 =================================================
 W R F - G C   T I M E R S
    Domain           1 (Units: s)
 =================================================
  => Coupler Component                       0.379
   -- Physics & Parameterization             0.092
   -- Diagnostics Out                        0.000
  => GEOS-Chem Column                      139.237
  ===> Total Chemistry                     139.617
  => WRF                                   211.721
  ===> Total WRF-GC                        351.338
 max optd  1.9364301E+31
 max taucldi  3.9063181E-07
 max taucldw  1.8776796E-05
 Switching is not necessary as we are already
 in the right domain!
 GIGC_Chunk_Run: Running for in-PET grid #           1
 GIGC_Chunk_Run: Received new grid IM, JM, LM =          15           9
          49
 =================================================
 W R F - G C   T I M E R S
    Domain           1 (Units: s)
 =================================================
  => Coupler Component                       0.423
   -- Physics & Parameterization             0.101
   -- Diagnostics Out                        0.000
  => GEOS-Chem Column                      140.252
  ===> Total Chemistry                     140.675
  => WRF                                   230.095
  ===> Total WRF-GC                        370.769
 max optd  1.9364301E+31
 max taucldi  4.4888452E-07
 max taucldw  1.9549958E-05
 Switching is not necessary as we are already
 in the right domain!
 GIGC_Chunk_Run: Running for in-PET grid #           1
 GIGC_Chunk_Run: Received new grid IM, JM, LM =          15           9
          49
 =================================================
 W R F - G C   T I M E R S
    Domain           1 (Units: s)
 =================================================
  => Coupler Component                       0.468
   -- Physics & Parameterization             0.110
   -- Diagnostics Out                        0.000
  => GEOS-Chem Column                      141.263
  ===> Total Chemistry                     141.731
  => WRF                                   248.365
  ===> Total WRF-GC                        390.096
 HOURLY EMISSIONS UPDATE TIME     3600.0       0.0
mediation_integrate: med_read_wrf_chem_emissions: Read emissions for time 2018-01-01_01:00:00
 max optd  1.9364301E+31
 max taucldi  5.0904072E-07
 max taucldw  2.0164232E-05
 Switching is not necessary as we are already
 in the right domain!
 GIGC_Chunk_Run: Running for in-PET grid #           1
 GIGC_Chunk_Run: Received new grid IM, JM, LM =          15           9
          49
 =================================================
 W R F - G C   T I M E R S
    Domain           1 (Units: s)
 =================================================
  => Coupler Component                       0.512
   -- Physics & Parameterization             0.120
   -- Diagnostics Out                        0.000
  => GEOS-Chem Column                      142.290
  ===> Total Chemistry                     142.802
  => WRF                                   266.718
  ===> Total WRF-GC                        409.520
 max optd  1.9364301E+31
 max taucldi  5.7510681E-07
 max taucldw  2.0857724E-05
 Switching is not necessary as we are already
 in the right domain!
 GIGC_Chunk_Run: Running for in-PET grid #           1
 GIGC_Chunk_Run: Received new grid IM, JM, LM =          15           9
          49
 =================================================
 W R F - G C   T I M E R S
    Domain           1 (Units: s)
 =================================================
  => Coupler Component                       0.552
   -- Physics & Parameterization             0.129
   -- Diagnostics Out                        0.000
  => GEOS-Chem Column                      143.317
  ===> Total Chemistry                     143.870
  => WRF                                   285.055
  ===> Total WRF-GC                        428.924
 max optd  1.9364301E+31
 max taucldi  6.5534994E-07
 max taucldw  2.1803333E-05
 Switching is not necessary as we are already
 in the right domain!
 GIGC_Chunk_Run: Running for in-PET grid #           1
 GIGC_Chunk_Run: Received new grid IM, JM, LM =          15           9
          49
 =================================================
 W R F - G C   T I M E R S
    Domain           1 (Units: s)
 =================================================
  => Coupler Component                       0.598
   -- Physics & Parameterization             0.138
   -- Diagnostics Out                        0.000
  => GEOS-Chem Column                      144.340
  ===> Total Chemistry                     144.938
  => WRF                                   303.270
  ===> Total WRF-GC                        448.208
 max optd  1.9364301E+31
 max taucldi  7.3648800E-07
 max taucldw  2.3098568E-05
 Switching is not necessary as we are already
 in the right domain!
 GIGC_Chunk_Run: Running for in-PET grid #           1
 GIGC_Chunk_Run: Received new grid IM, JM, LM =          15           9
          49
 =================================================
 W R F - G C   T I M E R S
    Domain           1 (Units: s)
 =================================================
  => Coupler Component                       0.639
   -- Physics & Parameterization             0.147
   -- Diagnostics Out                        0.000
  => GEOS-Chem Column                      145.361
  ===> Total Chemistry                     146.000
  => WRF                                   321.550
  ===> Total WRF-GC                        467.549
 max optd  1.9364301E+31
 max taucldi  8.3789109E-07
 max taucldw  2.4394656E-05
 Switching is not necessary as we are already
 in the right domain!
 GIGC_Chunk_Run: Running for in-PET grid #           1
 GIGC_Chunk_Run: Received new grid IM, JM, LM =          15           9
          49
 =================================================
 W R F - G C   T I M E R S
    Domain           1 (Units: s)
 =================================================
  => Coupler Component                       0.677
   -- Physics & Parameterization             0.156
   -- Diagnostics Out                        0.000
  => GEOS-Chem Column                      146.387
  ===> Total Chemistry                     147.064
  => WRF                                   339.827
  ===> Total WRF-GC                        486.891
 max optd  1.9364301E+31
 max taucldi  9.4827698E-07
 max taucldw  2.5717673E-05
 Switching is not necessary as we are already
 in the right domain!
 GIGC_Chunk_Run: Running for in-PET grid #           1
 GIGC_Chunk_Run: Received new grid IM, JM, LM =          15           9
          49
 =================================================
 W R F - G C   T I M E R S
    Domain           1 (Units: s)
 =================================================
  => Coupler Component                       0.717
   -- Physics & Parameterization             0.165
   -- Diagnostics Out                        0.000
  => GEOS-Chem Column                      147.419
  ===> Total Chemistry                     148.136
  => WRF                                   358.048
  ===> Total WRF-GC                        506.184
 max optd  1.9364301E+31
 max taucldi  1.0619978E-06
 max taucldw  2.7070651E-05
 Switching is not necessary as we are already
 in the right domain!
 GIGC_Chunk_Run: Running for in-PET grid #           1
 GIGC_Chunk_Run: Received new grid IM, JM, LM =          15           9
          49
 =================================================
 W R F - G C   T I M E R S
    Domain           1 (Units: s)
 =================================================
  => Coupler Component                       0.755
   -- Physics & Parameterization             0.174
   -- Diagnostics Out                        0.000
  => GEOS-Chem Column                      148.436
  ===> Total Chemistry                     149.191
  => WRF                                   376.338
  ===> Total WRF-GC                        525.529
 max optd  1.9364301E+31
 max taucldi  1.1893256E-06
 max taucldw  2.8490989E-05
 Switching is not necessary as we are already
 in the right domain!
 GIGC_Chunk_Run: Running for in-PET grid #           1
 GIGC_Chunk_Run: Received new grid IM, JM, LM =          15           9
          49
 =================================================
 W R F - G C   T I M E R S
    Domain           1 (Units: s)
 =================================================
  => Coupler Component                       0.799
   -- Physics & Parameterization             0.184
   -- Diagnostics Out                        0.000
  => GEOS-Chem Column                      149.452
  ===> Total Chemistry                     150.251
  => WRF                                   394.702
  ===> Total WRF-GC                        544.952
 max optd  1.9364301E+31
 max taucldi  1.3149377E-06
 max taucldw  2.9915404E-05
 Switching is not necessary as we are already
 in the right domain!
 GIGC_Chunk_Run: Running for in-PET grid #           1
 GIGC_Chunk_Run: Received new grid IM, JM, LM =          15           9
          49
 =================================================
 W R F - G C   T I M E R S
    Domain           1 (Units: s)
 =================================================
  => Coupler Component                       0.841
   -- Physics & Parameterization             0.193
   -- Diagnostics Out                        0.000
  => GEOS-Chem Column                      150.487
  ===> Total Chemistry                     151.327
  => WRF                                   412.842
  ===> Total WRF-GC                        564.169
 max optd  1.9364301E+31
 max taucldi  1.4348973E-06
 max taucldw  3.1427739E-05
 Switching is not necessary as we are already
 in the right domain!
 GIGC_Chunk_Run: Running for in-PET grid #           1
 GIGC_Chunk_Run: Received new grid IM, JM, LM =          15           9
          49
 =================================================
 W R F - G C   T I M E R S
    Domain           1 (Units: s)
 =================================================
  => Coupler Component                       0.878
   -- Physics & Parameterization             0.202
   -- Diagnostics Out                        0.000
  => GEOS-Chem Column                      151.521
  ===> Total Chemistry                     152.399
  => WRF                                   431.043
  ===> Total WRF-GC                        583.441
 max optd  1.9364301E+31
 max taucldi  1.5515296E-06
 max taucldw  3.2734009E-05
 Switching is not necessary as we are already
 in the right domain!
 GIGC_Chunk_Run: Running for in-PET grid #           1
 GIGC_Chunk_Run: Received new grid IM, JM, LM =          15           9
          49
 =================================================
 W R F - G C   T I M E R S
    Domain           1 (Units: s)
 =================================================
  => Coupler Component                       0.921
   -- Physics & Parameterization             0.211
   -- Diagnostics Out                        0.000
  => GEOS-Chem Column                      152.539
  ===> Total Chemistry                     153.460
  => WRF                                   449.337
  ===> Total WRF-GC                        602.797
 max optd  1.9364301E+31
 max taucldi  1.6654507E-06
 max taucldw  3.3715107E-05
 Switching is not necessary as we are already
 in the right domain!
 GIGC_Chunk_Run: Running for in-PET grid #           1
 GIGC_Chunk_Run: Received new grid IM, JM, LM =          15           9
          49
 =================================================
 W R F - G C   T I M E R S
    Domain           1 (Units: s)
 =================================================
  => Coupler Component                       0.957
   -- Physics & Parameterization             0.220
   -- Diagnostics Out                        0.000
  => GEOS-Chem Column                      153.573
  ===> Total Chemistry                     154.530
  => WRF                                   467.557
  ===> Total WRF-GC                        622.087
 HOURLY EMISSIONS UPDATE TIME     7200.0       0.0
mediation_integrate: med_read_wrf_chem_emissions: Read emissions for time 2018-01-01_02:00:00
 max optd  1.9364301E+31
 max taucldi  1.7577945E-06
 max taucldw  3.4426459E-05
 Switching is not necessary as we are already
 in the right domain!
 GIGC_Chunk_Run: Running for in-PET grid #           1
 GIGC_Chunk_Run: Received new grid IM, JM, LM =          15           9
          49
 =================================================
 W R F - G C   T I M E R S
    Domain           1 (Units: s)
 =================================================
  => Coupler Component                       1.001
   -- Physics & Parameterization             0.229
   -- Diagnostics Out                        0.000
  => GEOS-Chem Column                      154.586
  ===> Total Chemistry                     155.587
  => WRF                                   485.780
  ===> Total WRF-GC                        641.367
 max optd  1.9364301E+31
 max taucldi  1.8277325E-06
 max taucldw  3.5028781E-05
 Switching is not necessary as we are already
 in the right domain!
 GIGC_Chunk_Run: Running for in-PET grid #           1
 GIGC_Chunk_Run: Received new grid IM, JM, LM =          15           9
          49
 =================================================
 W R F - G C   T I M E R S
    Domain           1 (Units: s)
 =================================================
  => Coupler Component                       1.042
   -- Physics & Parameterization             0.238
   -- Diagnostics Out                        0.000
  => GEOS-Chem Column                      155.609
  ===> Total Chemistry                     156.651
  => WRF                                   504.032
  ===> Total WRF-GC                        660.683
 max optd  1.9364301E+31
 max taucldi  2.2782467E-06
 max taucldw  3.5526395E-05
 Switching is not necessary as we are already
 in the right domain!
 GIGC_Chunk_Run: Running for in-PET grid #           1
 GIGC_Chunk_Run: Received new grid IM, JM, LM =          15           9
          49
 =================================================
 W R F - G C   T I M E R S
    Domain           1 (Units: s)
 =================================================
  => Coupler Component                       1.080
   -- Physics & Parameterization             0.248
   -- Diagnostics Out                        0.000
  => GEOS-Chem Column                      156.669
  ===> Total Chemistry                     157.749
  => WRF                                   522.184
  ===> Total WRF-GC                        679.933
 max optd  1.9364301E+31
 max taucldi  2.9122398E-06
 max taucldw  3.7003971E-05
 Switching is not necessary as we are already
 in the right domain!
 GIGC_Chunk_Run: Running for in-PET grid #           1
 GIGC_Chunk_Run: Received new grid IM, JM, LM =          15           9
          49
 =================================================
 W R F - G C   T I M E R S
    Domain           1 (Units: s)
 =================================================
  => Coupler Component                       1.121
   -- Physics & Parameterization             0.257
   -- Diagnostics Out                        0.000
  => GEOS-Chem Column                      157.709
  ===> Total Chemistry                     158.830
  => WRF                                   540.287
  ===> Total WRF-GC                        699.116
 max optd  1.9364301E+31
 max taucldi  3.6508147E-06
 max taucldw  4.4229069E-05
 Switching is not necessary as we are already
 in the right domain!
 GIGC_Chunk_Run: Running for in-PET grid #           1
 GIGC_Chunk_Run: Received new grid IM, JM, LM =          15           9
          49
 =================================================
 W R F - G C   T I M E R S
    Domain           1 (Units: s)
 =================================================
  => Coupler Component                       1.164
   -- Physics & Parameterization             0.266
   -- Diagnostics Out                        0.000
  => GEOS-Chem Column                      158.732
  ===> Total Chemistry                     159.896
  => WRF                                   558.436
  ===> Total WRF-GC                        718.332
 max optd  1.9364301E+31
 max taucldi  4.3966861E-06
 max taucldw  5.2019601E-05
 Switching is not necessary as we are already
 in the right domain!
 GIGC_Chunk_Run: Running for in-PET grid #           1
 GIGC_Chunk_Run: Received new grid IM, JM, LM =          15           9
          49
 =================================================
 W R F - G C   T I M E R S
    Domain           1 (Units: s)
 =================================================
  => Coupler Component                       1.209
   -- Physics & Parameterization             0.275
   -- Diagnostics Out                        0.000
  => GEOS-Chem Column                      159.758
  ===> Total Chemistry                     160.967
  => WRF                                   576.600
  ===> Total WRF-GC                        737.567
 max optd  1.9364301E+31
 max taucldi  5.2246755E-06
 max taucldw  5.9742830E-05
 Switching is not necessary as we are already
 in the right domain!
 GIGC_Chunk_Run: Running for in-PET grid #           1
 GIGC_Chunk_Run: Received new grid IM, JM, LM =          15           9
          49
 =================================================
 W R F - G C   T I M E R S
    Domain           1 (Units: s)
 =================================================
  => Coupler Component                       1.249
   -- Physics & Parameterization             0.284
   -- Diagnostics Out                        0.000
  => GEOS-Chem Column                      160.800
  ===> Total Chemistry                     162.050
  => WRF                                   594.758
  ===> Total WRF-GC                        756.807
 max optd  1.9364301E+31
 max taucldi  6.1303585E-06
 max taucldw  6.7628265E-05
 Switching is not necessary as we are already
 in the right domain!
 GIGC_Chunk_Run: Running for in-PET grid #           1
 GIGC_Chunk_Run: Received new grid IM, JM, LM =          15           9
          49
 =================================================
 W R F - G C   T I M E R S
    Domain           1 (Units: s)
 =================================================
  => Coupler Component                       1.289
   -- Physics & Parameterization             0.293
   -- Diagnostics Out                        0.000
  => GEOS-Chem Column                      161.834
  ===> Total Chemistry                     163.123
  => WRF                                   612.861
  ===> Total WRF-GC                        775.985
 max optd  1.9364301E+31
 max taucldi  6.9990974E-06
 max taucldw  7.5200667E-05
 Switching is not necessary as we are already
 in the right domain!
 GIGC_Chunk_Run: Running for in-PET grid #           1
 GIGC_Chunk_Run: Received new grid IM, JM, LM =          15           9
          49
 =================================================
 W R F - G C   T I M E R S
    Domain           1 (Units: s)
 =================================================
  => Coupler Component                       1.332
   -- Physics & Parameterization             0.302
   -- Diagnostics Out                        0.000
  => GEOS-Chem Column                      162.858
  ===> Total Chemistry                     164.190
  => WRF                                   630.964
  ===> Total WRF-GC                        795.154
 max optd  1.9364301E+31
 max taucldi  7.9610109E-06
 max taucldw  8.3969739E-05
 Switching is not necessary as we are already
 in the right domain!
 GIGC_Chunk_Run: Running for in-PET grid #           1
 GIGC_Chunk_Run: Received new grid IM, JM, LM =          15           9
          49
 =================================================
 W R F - G C   T I M E R S
    Domain           1 (Units: s)
 =================================================
  => Coupler Component                       1.370
   -- Physics & Parameterization             0.311
   -- Diagnostics Out                        0.000
  => GEOS-Chem Column                      163.870
  ===> Total Chemistry                     165.240
  => WRF                                   649.142
  ===> Total WRF-GC                        814.382
 max optd  1.9364301E+31
 max taucldi  8.8951083E-06
 max taucldw  9.2208116E-05
 Switching is not necessary as we are already
 in the right domain!
 GIGC_Chunk_Run: Running for in-PET grid #           1
 GIGC_Chunk_Run: Received new grid IM, JM, LM =          15           9
          49
 =================================================
 W R F - G C   T I M E R S
    Domain           1 (Units: s)
 =================================================
  => Coupler Component                       1.410
   -- Physics & Parameterization             0.321
   -- Diagnostics Out                        0.000
  => GEOS-Chem Column                      164.890
  ===> Total Chemistry                     166.300
  => WRF                                   667.240
  ===> Total WRF-GC                        833.540
 max optd  1.9364301E+31
 max taucldi  9.6646463E-06
 max taucldw  9.8751647E-05
 Switching is not necessary as we are already
 in the right domain!
 GIGC_Chunk_Run: Running for in-PET grid #           1
 GIGC_Chunk_Run: Received new grid IM, JM, LM =          15           9
          49
 =================================================
 W R F - G C   T I M E R S
    Domain           1 (Units: s)
 =================================================
  => Coupler Component                       1.448
   -- Physics & Parameterization             0.330
   -- Diagnostics Out                        0.000
  => GEOS-Chem Column                      165.903
  ===> Total Chemistry                     167.351
  => WRF                                   685.345
  ===> Total WRF-GC                        852.696
 HOURLY EMISSIONS UPDATE TIME    10800.0       0.0
mediation_integrate: med_read_wrf_chem_emissions: Read emissions for time 2018-01-01_03:00:00
 max optd  1.9364301E+31
 max taucldi  1.0291766E-05
 max taucldw  1.0329052E-04
 Switching is not necessary as we are already
 in the right domain!
 GIGC_Chunk_Run: Running for in-PET grid #           1
 GIGC_Chunk_Run: Received new grid IM, JM, LM =          15           9
          49
 =================================================
 W R F - G C   T I M E R S
    Domain           1 (Units: s)
 =================================================
  => Coupler Component                       1.488
   -- Physics & Parameterization             0.339
   -- Diagnostics Out                        0.000
  => GEOS-Chem Column                      166.918
  ===> Total Chemistry                     168.406
  => WRF                                   703.522
  ===> Total WRF-GC                        871.928
 max optd  1.9364301E+31
 max taucldi  1.0746709E-05
 max taucldw  1.0648586E-04
 Switching is not necessary as we are already
 in the right domain!
 GIGC_Chunk_Run: Running for in-PET grid #           1
 GIGC_Chunk_Run: Received new grid IM, JM, LM =          15           9
          49
 =================================================
 W R F - G C   T I M E R S
    Domain           1 (Units: s)
 =================================================
  => Coupler Component                       1.528
   -- Physics & Parameterization             0.349
   -- Diagnostics Out                        0.000
  => GEOS-Chem Column                      167.950
  ===> Total Chemistry                     169.478
  => WRF                                   721.666
  ===> Total WRF-GC                        891.144
 max optd  1.9364301E+31
 max taucldi  1.1055282E-05
 max taucldw  1.0945318E-04
 Switching is not necessary as we are already
 in the right domain!
 GIGC_Chunk_Run: Running for in-PET grid #           1
 GIGC_Chunk_Run: Received new grid IM, JM, LM =          15           9
          49
 =================================================
 W R F - G C   T I M E R S
    Domain           1 (Units: s)
 =================================================
  => Coupler Component                       1.574
   -- Physics & Parameterization             0.358
   -- Diagnostics Out                        0.000
  => GEOS-Chem Column                      168.991
  ===> Total Chemistry                     170.564
  => WRF                                   739.769
  ===> Total WRF-GC                        910.334
 max optd  1.9364301E+31
 max taucldi  1.1177161E-05
 max taucldw  1.1140164E-04
 Switching is not necessary as we are already
 in the right domain!
 GIGC_Chunk_Run: Running for in-PET grid #           1
 GIGC_Chunk_Run: Received new grid IM, JM, LM =          15           9
          49
 =================================================
 W R F - G C   T I M E R S
    Domain           1 (Units: s)
 =================================================
  => Coupler Component                       1.616
   -- Physics & Parameterization             0.367
   -- Diagnostics Out                        0.000
  => GEOS-Chem Column                      170.014
  ===> Total Chemistry                     171.630
  => WRF                                   757.862
  ===> Total WRF-GC                        929.493
 max optd  1.9364301E+31
 max taucldi  1.1193286E-05
 max taucldw  1.1266716E-04
 Switching is not necessary as we are already
 in the right domain!
 GIGC_Chunk_Run: Running for in-PET grid #           1
 GIGC_Chunk_Run: Received new grid IM, JM, LM =          15           9
          49
 =================================================
 W R F - G C   T I M E R S
    Domain           1 (Units: s)
 =================================================
  => Coupler Component                       1.658
   -- Physics & Parameterization             0.376
   -- Diagnostics Out                        0.000
  => GEOS-Chem Column                      171.036
  ===> Total Chemistry                     172.694
  => WRF                                   775.963
  ===> Total WRF-GC                        948.656
 max optd  1.9364301E+31
 max taucldi  1.1247295E-05
 max taucldw  1.1325731E-04
 Switching is not necessary as we are already
 in the right domain!
 GIGC_Chunk_Run: Running for in-PET grid #           1
 GIGC_Chunk_Run: Received new grid IM, JM, LM =          15           9
          49
 =================================================
 W R F - G C   T I M E R S
    Domain           1 (Units: s)
 =================================================
  => Coupler Component                       1.699
   -- Physics & Parameterization             0.385
   -- Diagnostics Out                        0.000
  => GEOS-Chem Column                      172.056
  ===> Total Chemistry                     173.755
  => WRF                                   794.345
  ===> Total WRF-GC                        968.100
 max optd  1.9364301E+31
 max taucldi  1.1443769E-05
 max taucldw  1.1314187E-04
 Switching is not necessary as we are already
 in the right domain!
 GIGC_Chunk_Run: Running for in-PET grid #           1
 GIGC_Chunk_Run: Received new grid IM, JM, LM =          15           9
          49
 =================================================
 W R F - G C   T I M E R S
    Domain           1 (Units: s)
 =================================================
  => Coupler Component                       1.744
   -- Physics & Parameterization             0.394
   -- Diagnostics Out                        0.000
  => GEOS-Chem Column                      173.077
  ===> Total Chemistry                     174.821
  => WRF                                   812.548
  ===> Total WRF-GC                        987.369
 max optd  1.9364301E+31
 max taucldi  1.1581890E-05
 max taucldw  1.1231297E-04
 Switching is not necessary as we are already
 in the right domain!
 GIGC_Chunk_Run: Running for in-PET grid #           1
 GIGC_Chunk_Run: Received new grid IM, JM, LM =          15           9
          49
 =================================================
 W R F - G C   T I M E R S
    Domain           1 (Units: s)
 =================================================
  => Coupler Component                       1.784
   -- Physics & Parameterization             0.403
   -- Diagnostics Out                        0.000
  => GEOS-Chem Column                      174.129
  ===> Total Chemistry                     175.913
  => WRF                                   830.607
  ===> Total WRF-GC                       1006.520
 max optd  1.9364301E+31
 max taucldi  1.1638758E-05
 max taucldw  1.1254616E-04
 Switching is not necessary as we are already
 in the right domain!
 GIGC_Chunk_Run: Running for in-PET grid #           1
 GIGC_Chunk_Run: Received new grid IM, JM, LM =          15           9
          49
 =================================================
 W R F - G C   T I M E R S
    Domain           1 (Units: s)
 =================================================
  => Coupler Component                       1.823
   -- Physics & Parameterization             0.412
   -- Diagnostics Out                        0.000
  => GEOS-Chem Column                      175.162
  ===> Total Chemistry                     176.984
  => WRF                                   848.835
  ===> Total WRF-GC                       1025.819
 max optd  1.9364301E+31
 max taucldi  1.1611546E-05
 max taucldw  1.1210685E-04
 Switching is not necessary as we are already
 in the right domain!
 GIGC_Chunk_Run: Running for in-PET grid #           1
 GIGC_Chunk_Run: Received new grid IM, JM, LM =          15           9
          49
 =================================================
 W R F - G C   T I M E R S
    Domain           1 (Units: s)
 =================================================
  => Coupler Component                       1.866
   -- Physics & Parameterization             0.422
   -- Diagnostics Out                        0.000
  => GEOS-Chem Column                      176.184
  ===> Total Chemistry                     178.051
  => WRF                                   866.990
  ===> Total WRF-GC                       1045.041
 max optd  1.9364301E+31
 max taucldi  1.1506111E-05
 max taucldw  1.1089488E-04
 Switching is not necessary as we are already
 in the right domain!
 GIGC_Chunk_Run: Running for in-PET grid #           1
 GIGC_Chunk_Run: Received new grid IM, JM, LM =          15           9
          49
 =================================================
 W R F - G C   T I M E R S
    Domain           1 (Units: s)
 =================================================
  => Coupler Component                       1.909
   -- Physics & Parameterization             0.431
   -- Diagnostics Out                        0.000
  => GEOS-Chem Column                      177.225
  ===> Total Chemistry                     179.134
  => WRF                                   885.111
  ===> Total WRF-GC                       1064.245
 max optd  1.9364301E+31
 max taucldi  1.1345402E-05
 max taucldw  1.0943834E-04
 Switching is not necessary as we are already
 in the right domain!
 GIGC_Chunk_Run: Running for in-PET grid #           1
 GIGC_Chunk_Run: Received new grid IM, JM, LM =          15           9
          49
 =================================================
 W R F - G C   T I M E R S
    Domain           1 (Units: s)
 =================================================
  => Coupler Component                       1.947
   -- Physics & Parameterization             0.439
   -- Diagnostics Out                        0.000
  => GEOS-Chem Column                      178.249
  ===> Total Chemistry                     180.197
  => WRF                                   903.276
  ===> Total WRF-GC                       1083.472
 HOURLY EMISSIONS UPDATE TIME    14400.0       0.0
mediation_integrate: med_read_wrf_chem_emissions: Read emissions for time 2018-01-01_04:00:00
 max optd  1.9364301E+31
 max taucldi  1.1162766E-05
 max taucldw  1.0940611E-04
 Switching is not necessary as we are already
 in the right domain!
 GIGC_Chunk_Run: Running for in-PET grid #           1
 GIGC_Chunk_Run: Received new grid IM, JM, LM =          15           9
          49
 =================================================
 W R F - G C   T I M E R S
    Domain           1 (Units: s)
 =================================================
  => Coupler Component                       1.985
   -- Physics & Parameterization             0.450
   -- Diagnostics Out                        0.000
  => GEOS-Chem Column                      179.310
  ===> Total Chemistry                     181.295
  => WRF                                   921.442
  ===> Total WRF-GC                       1102.737
 max optd  1.9364301E+31
 max taucldi  1.0983461E-05
 max taucldw  1.0949571E-04
 Switching is not necessary as we are already
 in the right domain!
 GIGC_Chunk_Run: Running for in-PET grid #           1
 GIGC_Chunk_Run: Received new grid IM, JM, LM =          15           9
          49
 =================================================
 W R F - G C   T I M E R S
    Domain           1 (Units: s)
 =================================================
  => Coupler Component                       2.022
   -- Physics & Parameterization             0.460
   -- Diagnostics Out                        0.000
  => GEOS-Chem Column                      180.343
  ===> Total Chemistry                     182.365
  => WRF                                   939.573
  ===> Total WRF-GC                       1121.939
 max optd  1.9364301E+31
 max taucldi  1.0866468E-05
 max taucldw  1.0966965E-04
 Switching is not necessary as we are already
 in the right domain!
 GIGC_Chunk_Run: Running for in-PET grid #           1
 GIGC_Chunk_Run: Received new grid IM, JM, LM =          15           9
          49
 =================================================
 W R F - G C   T I M E R S
    Domain           1 (Units: s)
 =================================================
  => Coupler Component                       2.062
   -- Physics & Parameterization             0.469
   -- Diagnostics Out                        0.000
  => GEOS-Chem Column                      181.360
  ===> Total Chemistry                     183.422
  => WRF                                   957.796
  ===> Total WRF-GC                       1141.218
 max optd  1.9364301E+31
 max taucldi  1.0848695E-05
 max taucldw  1.1006779E-04
 Switching is not necessary as we are already
 in the right domain!
 GIGC_Chunk_Run: Running for in-PET grid #           1
 GIGC_Chunk_Run: Received new grid IM, JM, LM =          15           9
          49
 =================================================
 W R F - G C   T I M E R S
    Domain           1 (Units: s)
 =================================================
  => Coupler Component                       2.102
   -- Physics & Parameterization             0.478
   -- Diagnostics Out                        0.000
  => GEOS-Chem Column                      182.384
  ===> Total Chemistry                     184.486
  => WRF                                   975.961
  ===> Total WRF-GC                       1160.447
 max optd  1.9364301E+31
 max taucldi  1.0828270E-05
 max taucldw  1.1166328E-04
 Switching is not necessary as we are already
 in the right domain!
 GIGC_Chunk_Run: Running for in-PET grid #           1
 GIGC_Chunk_Run: Received new grid IM, JM, LM =          15           9
          49
 =================================================
 W R F - G C   T I M E R S
    Domain           1 (Units: s)
 =================================================
  => Coupler Component                       2.146
   -- Physics & Parameterization             0.488
   -- Diagnostics Out                        0.000
  => GEOS-Chem Column                      183.418
  ===> Total Chemistry                     185.564
  => WRF                                   994.139
  ===> Total WRF-GC                       1179.702
 max optd  1.9364301E+31
 max taucldi  1.0821611E-05
 max taucldw  1.1375248E-04
 Switching is not necessary as we are already
 in the right domain!
 GIGC_Chunk_Run: Running for in-PET grid #           1
 GIGC_Chunk_Run: Received new grid IM, JM, LM =          15           9
          49
 =================================================
 W R F - G C   T I M E R S
    Domain           1 (Units: s)
 =================================================
  => Coupler Component                       2.187
   -- Physics & Parameterization             0.497
   -- Diagnostics Out                        0.000
  => GEOS-Chem Column                      184.436
  ===> Total Chemistry                     186.623
  => WRF                                  1012.288
  ===> Total WRF-GC                       1198.911
 max optd  1.9364301E+31
 max taucldi  1.1103454E-05
 max taucldw  1.1578803E-04
 Switching is not necessary as we are already
 in the right domain!
 GIGC_Chunk_Run: Running for in-PET grid #           1
 GIGC_Chunk_Run: Received new grid IM, JM, LM =          15           9
          49
 =================================================
 W R F - G C   T I M E R S
    Domain           1 (Units: s)
 =================================================
  => Coupler Component                       2.233
   -- Physics & Parameterization             0.506
   -- Diagnostics Out                        0.000
  => GEOS-Chem Column                      185.459
  ===> Total Chemistry                     187.692
  => WRF                                  1030.522
  ===> Total WRF-GC                       1218.214
 max optd  1.9364301E+31
 max taucldi  1.1454439E-05
 max taucldw  1.1775627E-04
 Switching is not necessary as we are already
 in the right domain!
 GIGC_Chunk_Run: Running for in-PET grid #           1
 GIGC_Chunk_Run: Received new grid IM, JM, LM =          15           9
          49
 =================================================
 W R F - G C   T I M E R S
    Domain           1 (Units: s)
 =================================================
  => Coupler Component                       2.276
   -- Physics & Parameterization             0.515
   -- Diagnostics Out                        0.000
  => GEOS-Chem Column                      186.484
  ===> Total Chemistry                     188.760
  => WRF                                  1048.654
  ===> Total WRF-GC                       1237.414
 max optd  1.9364301E+31
 max taucldi  1.1819981E-05
 max taucldw  1.2106209E-04
 Switching is not necessary as we are already
 in the right domain!
 GIGC_Chunk_Run: Running for in-PET grid #           1
 GIGC_Chunk_Run: Received new grid IM, JM, LM =          15           9
          49
 =================================================
 W R F - G C   T I M E R S
    Domain           1 (Units: s)
 =================================================
  => Coupler Component                       2.317
   -- Physics & Parameterization             0.524
   -- Diagnostics Out                        0.000
  => GEOS-Chem Column                      187.498
  ===> Total Chemistry                     189.815
  => WRF                                  1066.811
  ===> Total WRF-GC                       1256.626
 max optd  1.9364301E+31
 max taucldi  1.2307576E-05
 max taucldw  1.2457183E-04
 Switching is not necessary as we are already
 in the right domain!
 GIGC_Chunk_Run: Running for in-PET grid #           1
 GIGC_Chunk_Run: Received new grid IM, JM, LM =          15           9
          49
 =================================================
 W R F - G C   T I M E R S
    Domain           1 (Units: s)
 =================================================
  => Coupler Component                       2.362
   -- Physics & Parameterization             0.533
   -- Diagnostics Out                        0.000
  => GEOS-Chem Column                      188.530
  ===> Total Chemistry                     190.892
  => WRF                                  1084.983
  ===> Total WRF-GC                       1275.876
 max optd  1.9364301E+31
 max taucldi  1.2857170E-05
 max taucldw  1.2821851E-04
 Switching is not necessary as we are already
 in the right domain!
 GIGC_Chunk_Run: Running for in-PET grid #           1
 GIGC_Chunk_Run: Received new grid IM, JM, LM =          15           9
          49
 =================================================
 W R F - G C   T I M E R S
    Domain           1 (Units: s)
 =================================================
  => Coupler Component                       2.400
   -- Physics & Parameterization             0.542
   -- Diagnostics Out                        0.000
  => GEOS-Chem Column                      189.565
  ===> Total Chemistry                     191.965
  => WRF                                  1103.082
  ===> Total WRF-GC                       1295.047
 max optd  1.9364301E+31
 max taucldi  1.3403354E-05
 max taucldw  1.3183194E-04
 Switching is not necessary as we are already
 in the right domain!
 GIGC_Chunk_Run: Running for in-PET grid #           1
 GIGC_Chunk_Run: Received new grid IM, JM, LM =          15           9
          49
 =================================================
 W R F - G C   T I M E R S
    Domain           1 (Units: s)
 =================================================
  => Coupler Component                       2.444
   -- Physics & Parameterization             0.552
   -- Diagnostics Out                        0.000
  => GEOS-Chem Column                      190.581
  ===> Total Chemistry                     193.025
  => WRF                                  1121.165
  ===> Total WRF-GC                       1314.189
 HOURLY EMISSIONS UPDATE TIME    18000.0       0.0
mediation_integrate: med_read_wrf_chem_emissions: Read emissions for time 2018-01-01_05:00:00
 max optd  1.9364301E+31
 max taucldi  1.4005941E-05
 max taucldw  1.3597115E-04
 Switching is not necessary as we are already
 in the right domain!
 GIGC_Chunk_Run: Running for in-PET grid #           1
 GIGC_Chunk_Run: Received new grid IM, JM, LM =          15           9
          49
 =================================================
 W R F - G C   T I M E R S
    Domain           1 (Units: s)
 =================================================
  => Coupler Component                       2.483
   -- Physics & Parameterization             0.561
   -- Diagnostics Out                        0.000
  => GEOS-Chem Column                      191.627
  ===> Total Chemistry                     194.110
  => WRF                                  1139.379
  ===> Total WRF-GC                       1333.489
 max optd  1.9364301E+31
 max taucldi  6.3308828E-05
 max taucldw  1.4039599E-04
 Switching is not necessary as we are already
 in the right domain!
 GIGC_Chunk_Run: Running for in-PET grid #           1
 GIGC_Chunk_Run: Received new grid IM, JM, LM =          15           9
          49
 =================================================
 W R F - G C   T I M E R S
    Domain           1 (Units: s)
 =================================================
  => Coupler Component                       2.524
   -- Physics & Parameterization             0.570
   -- Diagnostics Out                        0.000
  => GEOS-Chem Column                      192.678
  ===> Total Chemistry                     195.202
  => WRF                                  1157.479
  ===> Total WRF-GC                       1352.681
 max optd  1.9364301E+31
 max taucldi  1.6213993E-04
 max taucldw  1.4473846E-04
 Switching is not necessary as we are already
 in the right domain!
 GIGC_Chunk_Run: Running for in-PET grid #           1
 GIGC_Chunk_Run: Received new grid IM, JM, LM =          15           9
          49
 =================================================
 W R F - G C   T I M E R S
    Domain           1 (Units: s)
 =================================================
  => Coupler Component                       2.567
   -- Physics & Parameterization             0.579
   -- Diagnostics Out                        0.000
  => GEOS-Chem Column                      193.708
  ===> Total Chemistry                     196.275
  => WRF                                  1175.584
  ===> Total WRF-GC                       1371.860
 max optd  1.9364301E+31
 max taucldi  2.3997622E-04
 max taucldw  1.4900196E-04
 Switching is not necessary as we are already
 in the right domain!
 GIGC_Chunk_Run: Running for in-PET grid #           1
 GIGC_Chunk_Run: Received new grid IM, JM, LM =          15           9
          49
 =================================================
 W R F - G C   T I M E R S
    Domain           1 (Units: s)
 =================================================
  => Coupler Component                       2.609
   -- Physics & Parameterization             0.588
   -- Diagnostics Out                        0.000
  => GEOS-Chem Column                      194.741
  ===> Total Chemistry                     197.349
  => WRF                                  1193.744
  ===> Total WRF-GC                       1391.094
 max optd  1.9364301E+31
 max taucldi  2.7364894E-04
 max taucldw  1.5315707E-04
 Switching is not necessary as we are already
 in the right domain!
 GIGC_Chunk_Run: Running for in-PET grid #           1
 GIGC_Chunk_Run: Received new grid IM, JM, LM =          15           9
          49
 =================================================
 W R F - G C   T I M E R S
    Domain           1 (Units: s)
 =================================================
  => Coupler Component                       2.647
   -- Physics & Parameterization             0.597
   -- Diagnostics Out                        0.000
  => GEOS-Chem Column                      195.772
  ===> Total Chemistry                     198.419
  => WRF                                  1211.944
  ===> Total WRF-GC                       1410.363
 max optd  1.9364301E+31
 max taucldi  3.0496938E-04
 max taucldw  1.5729333E-04
 Switching is not necessary as we are already
 in the right domain!
 GIGC_Chunk_Run: Running for in-PET grid #           1
 GIGC_Chunk_Run: Received new grid IM, JM, LM =          15           9
          49
 =================================================
 W R F - G C   T I M E R S
    Domain           1 (Units: s)
 =================================================
  => Coupler Component                       2.690
   -- Physics & Parameterization             0.606
   -- Diagnostics Out                        0.000
  => GEOS-Chem Column                      196.810
  ===> Total Chemistry                     199.501
  => WRF                                  1230.050
  ===> Total WRF-GC                       1429.551
 max optd  1.9364301E+31
 max taucldi  3.6932985E-04
 max taucldw  1.6156670E-04
 Switching is not necessary as we are already
 in the right domain!
 GIGC_Chunk_Run: Running for in-PET grid #           1
 GIGC_Chunk_Run: Received new grid IM, JM, LM =          15           9
          49
 =================================================
 W R F - G C   T I M E R S
    Domain           1 (Units: s)
 =================================================
  => Coupler Component                       2.736
   -- Physics & Parameterization             0.615
   -- Diagnostics Out                        0.000
  => GEOS-Chem Column                      197.832
  ===> Total Chemistry                     200.568
  => WRF                                  1248.252
  ===> Total WRF-GC                       1448.820
 max optd  1.9364301E+31
 max taucldi  4.5236934E-04
 max taucldw  1.6524829E-04
 Switching is not necessary as we are already
 in the right domain!
 GIGC_Chunk_Run: Running for in-PET grid #           1
 GIGC_Chunk_Run: Received new grid IM, JM, LM =          15           9
          49
 =================================================
 W R F - G C   T I M E R S
    Domain           1 (Units: s)
 =================================================
  => Coupler Component                       2.782
   -- Physics & Parameterization             0.624
   -- Diagnostics Out                        0.000
  => GEOS-Chem Column                      198.852
  ===> Total Chemistry                     201.634
  => WRF                                  1266.378
  ===> Total WRF-GC                       1468.012
 max optd  1.9364301E+31
 max taucldi  6.7054370E-04
 max taucldw  1.6840131E-04
 Switching is not necessary as we are already
 in the right domain!
 GIGC_Chunk_Run: Running for in-PET grid #           1
 GIGC_Chunk_Run: Received new grid IM, JM, LM =          15           9
          49
 =================================================
 W R F - G C   T I M E R S
    Domain           1 (Units: s)
 =================================================
  => Coupler Component                       2.824
   -- Physics & Parameterization             0.633
   -- Diagnostics Out                        0.000
  => GEOS-Chem Column                      199.880
  ===> Total Chemistry                     202.704
  => WRF                                  1284.574
  ===> Total WRF-GC                       1487.279
 max optd  1.9364301E+31
 max taucldi  9.2222140E-04
 max taucldw  1.7100232E-04
 Switching is not necessary as we are already
 in the right domain!
 GIGC_Chunk_Run: Running for in-PET grid #           1
 GIGC_Chunk_Run: Received new grid IM, JM, LM =          15           9
          49
 =================================================
 W R F - G C   T I M E R S
    Domain           1 (Units: s)
 =================================================
  => Coupler Component                       2.862
   -- Physics & Parameterization             0.642
   -- Diagnostics Out                        0.000
  => GEOS-Chem Column                      200.931
  ===> Total Chemistry                     203.793
  => WRF                                  1303.012
  ===> Total WRF-GC                       1506.806
 max optd  1.9364301E+31
 max taucldi  1.1230949E-03
 max taucldw  1.7293845E-04
 Switching is not necessary as we are already
 in the right domain!
 GIGC_Chunk_Run: Running for in-PET grid #           1
 GIGC_Chunk_Run: Received new grid IM, JM, LM =          15           9
          49
 =================================================
 W R F - G C   T I M E R S
    Domain           1 (Units: s)
 =================================================
  => Coupler Component                       2.896
   -- Physics & Parameterization             0.651
   -- Diagnostics Out                        0.000
  => GEOS-Chem Column                      201.972
  ===> Total Chemistry                     204.869
  => WRF                                  1321.149
  ===> Total WRF-GC                       1526.018
 max optd  1.9364301E+31
 max taucldi  1.3084393E-03
 max taucldw  1.7414555E-04
 Switching is not necessary as we are already
 in the right domain!
 GIGC_Chunk_Run: Running for in-PET grid #           1
 GIGC_Chunk_Run: Received new grid IM, JM, LM =          15           9
          49
 =================================================
 W R F - G C   T I M E R S
    Domain           1 (Units: s)
 =================================================
  => Coupler Component                       2.933
   -- Physics & Parameterization             0.660
   -- Diagnostics Out                        0.000
  => GEOS-Chem Column                      203.008
  ===> Total Chemistry                     205.941
  => WRF                                  1339.289
  ===> Total WRF-GC                       1545.230
 HOURLY EMISSIONS UPDATE TIME    21600.0       0.0
mediation_integrate: med_read_wrf_chem_emissions: Read emissions for time 2018-01-01_06:00:00
 max optd  1.9364301E+31
 max taucldi  1.4780237E-03
 max taucldw  1.7477082E-04
 Switching is not necessary as we are already
 in the right domain!
 GIGC_Chunk_Run: Running for in-PET grid #           1
 GIGC_Chunk_Run: Received new grid IM, JM, LM =          15           9
          49
 =================================================
 W R F - G C   T I M E R S
    Domain           1 (Units: s)
 =================================================
  => Coupler Component                       2.974
   -- Physics & Parameterization             0.669
   -- Diagnostics Out                        0.000
  => GEOS-Chem Column                      204.056
  ===> Total Chemistry                     207.030
  => WRF                                  1797.986
  ===> Total WRF-GC                       2005.016
 max optd  1.9364301E+31
 max taucldi  1.6015235E-03
 max taucldw  1.7497178E-04
 Switching is not necessary as we are already
 in the right domain!
 GIGC_Chunk_Run: Running for in-PET grid #           1
 GIGC_Chunk_Run: Received new grid IM, JM, LM =          15           9
          49
 =================================================
 W R F - G C   T I M E R S
    Domain           1 (Units: s)
 =================================================
  => Coupler Component                       3.014
   -- Physics & Parameterization             0.678
   -- Diagnostics Out                        0.000
  => GEOS-Chem Column                      205.107
  ===> Total Chemistry                     208.121
  => WRF                                  1816.126
  ===> Total WRF-GC                       2024.247
 max optd  1.9364301E+31
 max taucldi  1.6628250E-03
 max taucldw  1.7488727E-04
 Switching is not necessary as we are already
 in the right domain!
 GIGC_Chunk_Run: Running for in-PET grid #           1
 GIGC_Chunk_Run: Received new grid IM, JM, LM =          15           9
          49
 =================================================
 W R F - G C   T I M E R S
    Domain           1 (Units: s)
 =================================================
  => Coupler Component                       3.052
   -- Physics & Parameterization             0.687
   -- Diagnostics Out                        0.000
  => GEOS-Chem Column                      206.156
  ===> Total Chemistry                     209.208
  => WRF                                  1834.407
  ===> Total WRF-GC                       2043.615
 max optd  1.9364301E+31
 max taucldi  1.6622514E-03
 max taucldw  1.7467080E-04
 Switching is not necessary as we are already
 in the right domain!
 GIGC_Chunk_Run: Running for in-PET grid #           1
 GIGC_Chunk_Run: Received new grid IM, JM, LM =          15           9
          49
 =================================================
 W R F - G C   T I M E R S
    Domain           1 (Units: s)
 =================================================
  => Coupler Component                       3.091
[...]
  => GEOS-Chem Column                      252.568
  ===> Total Chemistry                     257.532
  => WRF                                  2653.326
  ===> Total WRF-GC                       2910.858
 HOURLY EMISSIONS UPDATE TIME    36000.0       0.0
mediation_integrate: med_read_wrf_chem_emissions: Read emissions for time 2018-01-01_10:00:00
 max optd  1.9364301E+31
 max taucldi  1.3003068E-03
 max taucldw  2.1371880E-04
 Switching is not necessary as we are already
 in the right domain!
 GIGC_Chunk_Run: Running for in-PET grid #           1
 GIGC_Chunk_Run: Received new grid IM, JM, LM =          15           9
          49
 =================================================
 W R F - G C   T I M E R S
    Domain           1 (Units: s)
 =================================================
  => Coupler Component                       5.002
   -- Physics & Parameterization             1.108
   -- Diagnostics Out                        0.000
  => GEOS-Chem Column                      253.602
  ===> Total Chemistry                     258.604
  => WRF                                  2671.599
  ===> Total WRF-GC                       2930.203
 max optd  1.9364301E+31
 max taucldi  1.2732086E-03
 max taucldw  2.1385711E-04
 Switching is not necessary as we are already
 in the right domain!
 GIGC_Chunk_Run: Running for in-PET grid #           1
 GIGC_Chunk_Run: Received new grid IM, JM, LM =          15           9
          49
 =================================================
 W R F - G C   T I M E R S
    Domain           1 (Units: s)
 =================================================
  => Coupler Component                       5.038
   -- Physics & Parameterization             1.117
   -- Diagnostics Out                        0.000
  => GEOS-Chem Column                      254.639
  ===> Total Chemistry                     259.678
  => WRF                                  2689.781
  ===> Total WRF-GC                       2949.459
 max optd  1.9364301E+31
 max taucldi  1.2595818E-03
 max taucldw  2.1410520E-04
 Switching is not necessary as we are already
 in the right domain!
 GIGC_Chunk_Run: Running for in-PET grid #           1
 GIGC_Chunk_Run: Received new grid IM, JM, LM =          15           9
          49
 =================================================
 W R F - G C   T I M E R S
    Domain           1 (Units: s)
 =================================================
  => Coupler Component                       5.076
   -- Physics & Parameterization             1.127
   -- Diagnostics Out                        0.000
  => GEOS-Chem Column                      255.670
  ===> Total Chemistry                     260.746
  => WRF                                  2707.937
  ===> Total WRF-GC                       2968.682
 max optd  1.9364301E+31
 max taucldi  1.2448782E-03
 max taucldw  2.1444068E-04
 Switching is not necessary as we are already
 in the right domain!
 GIGC_Chunk_Run: Running for in-PET grid #           1
 GIGC_Chunk_Run: Received new grid IM, JM, LM =          15           9
          49
 =================================================
 W R F - G C   T I M E R S
    Domain           1 (Units: s)
 =================================================
  => Coupler Component                       5.119
   -- Physics & Parameterization             1.136
   -- Diagnostics Out                        0.000
  => GEOS-Chem Column                      256.700
  ===> Total Chemistry                     261.820
  => WRF                                  2726.192
  ===> Total WRF-GC                       2988.012
 max optd  1.9364301E+31
 max taucldi  1.2215560E-03
 max taucldw  2.1482987E-04
 Switching is not necessary as we are already
 in the right domain!
 GIGC_Chunk_Run: Running for in-PET grid #           1
 GIGC_Chunk_Run: Received new grid IM, JM, LM =          15           9
          49
 =================================================
 W R F - G C   T I M E R S
    Domain           1 (Units: s)
 =================================================
  => Coupler Component                       5.162
   -- Physics & Parameterization             1.145
   -- Diagnostics Out                        0.000
  => GEOS-Chem Column                      257.738
  ===> Total Chemistry                     262.900
  => WRF                                  2744.393
  ===> Total WRF-GC                       3007.293
 max optd  1.9364301E+31
 max taucldi  1.1804083E-03
 max taucldw  2.1522574E-04
 Switching is not necessary as we are already
 in the right domain!
 GIGC_Chunk_Run: Running for in-PET grid #           1
 GIGC_Chunk_Run: Received new grid IM, JM, LM =          15           9
          49
 =================================================
 W R F - G C   T I M E R S
    Domain           1 (Units: s)
 =================================================
  => Coupler Component                       5.208
   -- Physics & Parameterization             1.154
   -- Diagnostics Out                        0.000
  => GEOS-Chem Column                      258.762
  ===> Total Chemistry                     263.970
  => WRF                                  2762.503
  ===> Total WRF-GC                       3026.473
 max optd  1.9364301E+31
 max taucldi  1.1275939E-03
 max taucldw  2.1558831E-04
 Switching is not necessary as we are already
 in the right domain!
 GIGC_Chunk_Run: Running for in-PET grid #           1
 GIGC_Chunk_Run: Received new grid IM, JM, LM =          15           9
          49
 =================================================
 W R F - G C   T I M E R S
    Domain           1 (Units: s)
 =================================================
  => Coupler Component                       5.251
   -- Physics & Parameterization             1.163
   -- Diagnostics Out                        0.000
  => GEOS-Chem Column                      259.792
  ===> Total Chemistry                     265.043
  => WRF                                  2780.716
  ===> Total WRF-GC                       3045.758
 max optd  1.9364301E+31
 max taucldi  1.0698575E-03
 max taucldw  2.1592523E-04
 Switching is not necessary as we are already
 in the right domain!
 GIGC_Chunk_Run: Running for in-PET grid #           1
 GIGC_Chunk_Run: Received new grid IM, JM, LM =          15           9
          49
 =================================================
 W R F - G C   T I M E R S
    Domain           1 (Units: s)
 =================================================
  => Coupler Component                       5.296
   -- Physics & Parameterization             1.172
   -- Diagnostics Out                        0.000
  => GEOS-Chem Column                      260.816
  ===> Total Chemistry                     266.112
  => WRF                                  2798.898
  ===> Total WRF-GC                       3065.010
 max optd  1.9364301E+31
 max taucldi  1.0147411E-03
 max taucldw  2.1622317E-04
 Switching is not necessary as we are already
 in the right domain!
 GIGC_Chunk_Run: Running for in-PET grid #           1
 GIGC_Chunk_Run: Received new grid IM, JM, LM =          15           9
          49
 =================================================
 W R F - G C   T I M E R S
    Domain           1 (Units: s)
 =================================================
  => Coupler Component                       5.340
   -- Physics & Parameterization             1.182
   -- Diagnostics Out                        0.000
  => GEOS-Chem Column                      261.844
  ===> Total Chemistry                     267.184
  => WRF                                  2817.056
  ===> Total WRF-GC                       3084.240
 max optd  1.9364301E+31
 max taucldi  9.6621236E-04
 max taucldw  2.1646479E-04
 Switching is not necessary as we are already
 in the right domain!
 GIGC_Chunk_Run: Running for in-PET grid #           1
 GIGC_Chunk_Run: Received new grid IM, JM, LM =          15           9
          49
 =================================================
 W R F - G C   T I M E R S
    Domain           1 (Units: s)
 =================================================
  => Coupler Component                       5.377
   -- Physics & Parameterization             1.191
   -- Diagnostics Out                        0.000
  => GEOS-Chem Column                      262.880
  ===> Total Chemistry                     268.257
  => WRF                                  2835.309
  ===> Total WRF-GC                       3103.566
 max optd  1.9364301E+31
 max taucldi  9.4449072E-04
 max taucldw  2.1664747E-04
 Switching is not necessary as we are already
 in the right domain!
 GIGC_Chunk_Run: Running for in-PET grid #           1
 GIGC_Chunk_Run: Received new grid IM, JM, LM =          15           9
          49
 =================================================
 W R F - G C   T I M E R S
    Domain           1 (Units: s)
 =================================================
  => Coupler Component                       5.424
   -- Physics & Parameterization             1.200
   -- Diagnostics Out                        0.000
  => GEOS-Chem Column                      263.907
  ===> Total Chemistry                     269.331
  => WRF                                  2853.464
  ===> Total WRF-GC                       3122.795
 max optd  1.9364301E+31
 max taucldi  9.4055996E-04
 max taucldw  2.1675888E-04
 Switching is not necessary as we are already
 in the right domain!
 GIGC_Chunk_Run: Running for in-PET grid #           1
 GIGC_Chunk_Run: Received new grid IM, JM, LM =          15           9
          49
 =================================================
 W R F - G C   T I M E R S
    Domain           1 (Units: s)
 =================================================
  => Coupler Component                       5.465
   -- Physics & Parameterization             1.209
   -- Diagnostics Out                        0.000
  => GEOS-Chem Column                      264.961
  ===> Total Chemistry                     270.426
  => WRF                                  2871.697
  ===> Total WRF-GC                       3142.123
 HOURLY EMISSIONS UPDATE TIME    39600.0       0.0
mediation_integrate: med_read_wrf_chem_emissions: Read emissions for time 2018-01-01_11:00:00
 max optd  1.9364301E+31
 max taucldi  9.4082742E-04
 max taucldw  2.1684042E-04
 Switching is not necessary as we are already
 in the right domain!
 GIGC_Chunk_Run: Running for in-PET grid #           1
 GIGC_Chunk_Run: Received new grid IM, JM, LM =          15           9
          49
 =================================================
 W R F - G C   T I M E R S
    Domain           1 (Units: s)
 =================================================
  => Coupler Component                       5.506
   -- Physics & Parameterization             1.219
   -- Diagnostics Out                        0.000
  => GEOS-Chem Column                      265.969
  ===> Total Chemistry                     271.474
  => WRF                                  2889.855
  ===> Total WRF-GC                       3161.329
 max optd  1.9364301E+31
 max taucldi  9.4212615E-04
 max taucldw  2.1691436E-04
 Switching is not necessary as we are already
 in the right domain!
 GIGC_Chunk_Run: Running for in-PET grid #           1
 GIGC_Chunk_Run: Received new grid IM, JM, LM =          15           9
          49
 =================================================
 W R F - G C   T I M E R S
    Domain           1 (Units: s)
 =================================================
  => Coupler Component                       5.549
   -- Physics & Parameterization             1.229
   -- Diagnostics Out                        0.000
  => GEOS-Chem Column                      266.984
  ===> Total Chemistry                     272.533
  => WRF                                  2908.037
  ===> Total WRF-GC                       3180.571
 max optd  1.9364301E+31
 max taucldi  9.4267383E-04
 max taucldw  2.1697655E-04
 Switching is not necessary as we are already
 in the right domain!
 GIGC_Chunk_Run: Running for in-PET grid #           1
 GIGC_Chunk_Run: Received new grid IM, JM, LM =          15           9
          49
 =================================================
 W R F - G C   T I M E R S
    Domain           1 (Units: s)
 =================================================
  => Coupler Component                       5.592
   -- Physics & Parameterization             1.238
   -- Diagnostics Out                        0.000
  => GEOS-Chem Column                      268.004
  ===> Total Chemistry                     273.595
  => WRF                                  2926.323
  ===> Total WRF-GC                       3199.918
 max optd  1.9364301E+31
 max taucldi  9.4707531E-04
 max taucldw  2.1700047E-04
 Switching is not necessary as we are already
 in the right domain!
 GIGC_Chunk_Run: Running for in-PET grid #           1
 GIGC_Chunk_Run: Received new grid IM, JM, LM =          15           9
          49
 =================================================
 W R F - G C   T I M E R S
    Domain           1 (Units: s)
 =================================================
  => Coupler Component                       5.639
   -- Physics & Parameterization             1.247
   -- Diagnostics Out                        0.000
  => GEOS-Chem Column                      269.024
  ===> Total Chemistry                     274.664
  => WRF                                  2944.625
  ===> Total WRF-GC                       3219.288
 max optd  1.9364301E+31
 max taucldi  9.5313456E-04
 max taucldw  2.1697217E-04
 Switching is not necessary as we are already
 in the right domain!
 GIGC_Chunk_Run: Running for in-PET grid #           1
 GIGC_Chunk_Run: Received new grid IM, JM, LM =          15           9
          49
 =================================================
 W R F - G C   T I M E R S
    Domain           1 (Units: s)
 =================================================
  => Coupler Component                       5.684
   -- Physics & Parameterization             1.256
   -- Diagnostics Out                        0.000
  => GEOS-Chem Column                      270.042
  ===> Total Chemistry                     275.726
  => WRF                                  2963.067
  ===> Total WRF-GC                       3238.794
 max optd  1.9364301E+31
 max taucldi  9.6960540E-04
 max taucldw  2.1684992E-04
 Switching is not necessary as we are already
 in the right domain!
 GIGC_Chunk_Run: Running for in-PET grid #           1
 GIGC_Chunk_Run: Received new grid IM, JM, LM =          15           9
          49
 =================================================
 W R F - G C   T I M E R S
    Domain           1 (Units: s)
 =================================================
  => Coupler Component                       5.732
   -- Physics & Parameterization             1.265
   -- Diagnostics Out                        0.000
  => GEOS-Chem Column                      271.067
  ===> Total Chemistry                     276.798
  => WRF                                  2981.485
  ===> Total WRF-GC                       3258.283
 max optd  1.9364301E+31
 max taucldi  9.7935996E-04
 max taucldw  2.1664116E-04
 Switching is not necessary as we are already
 in the right domain!
 GIGC_Chunk_Run: Running for in-PET grid #           1
 GIGC_Chunk_Run: Received new grid IM, JM, LM =          15           9
          49
 =================================================
 W R F - G C   T I M E R S
    Domain           1 (Units: s)
 =================================================
  => Coupler Component                       5.776
   -- Physics & Parameterization             1.275
   -- Diagnostics Out                        0.000
  => GEOS-Chem Column                      272.084
  ===> Total Chemistry                     277.860
  => WRF                                  3000.058
  ===> Total WRF-GC                       3277.918
 max optd  1.9364301E+31
 max taucldi  9.7674457E-04
 max taucldw  2.1641073E-04
 Switching is not necessary as we are already
 in the right domain!
 GIGC_Chunk_Run: Running for in-PET grid #           1
 GIGC_Chunk_Run: Received new grid IM, JM, LM =          15           9
          49
 =================================================
 W R F - G C   T I M E R S
    Domain           1 (Units: s)
 =================================================
  => Coupler Component                       5.821
   -- Physics & Parameterization             1.284
   -- Diagnostics Out                        0.000
  => GEOS-Chem Column                      273.109
  ===> Total Chemistry                     278.930
  => WRF                                  3018.657
  ===> Total WRF-GC                       3297.587
 max optd  1.9364301E+31
 max taucldi  7.8887312E-04
 max taucldw  2.1623282E-04
 Switching is not necessary as we are already
 in the right domain!
 GIGC_Chunk_Run: Running for in-PET grid #           1
 GIGC_Chunk_Run: Received new grid IM, JM, LM =          15           9
          49
 =================================================
 W R F - G C   T I M E R S
    Domain           1 (Units: s)
 =================================================
  => Coupler Component                       5.865
   -- Physics & Parameterization             1.293
   -- Diagnostics Out                        0.000
  => GEOS-Chem Column                      274.128
  ===> Total Chemistry                     279.992
  => WRF                                  3037.370
  ===> Total WRF-GC                       3317.363
 max optd  1.9364301E+31
 max taucldi  5.6304946E-04
 max taucldw  2.1612966E-04
 Switching is not necessary as we are already
 in the right domain!
 GIGC_Chunk_Run: Running for in-PET grid #           1
 GIGC_Chunk_Run: Received new grid IM, JM, LM =          15           9
          49
 =================================================
 W R F - G C   T I M E R S
    Domain           1 (Units: s)
 =================================================
  => Coupler Component                       5.905
   -- Physics & Parameterization             1.302
   -- Diagnostics Out                        0.000
  => GEOS-Chem Column                      275.171
  ===> Total Chemistry                     281.077
  => WRF                                  3056.312
  ===> Total WRF-GC                       3337.389
 max optd  1.9364301E+31
 max taucldi  5.5962801E-04
 max taucldw  2.1611169E-04
 Switching is not necessary as we are already
 in the right domain!
 GIGC_Chunk_Run: Running for in-PET grid #           1
 GIGC_Chunk_Run: Received new grid IM, JM, LM =          15           9
          49
 =================================================
 W R F - G C   T I M E R S
    Domain           1 (Units: s)
 =================================================
  => Coupler Component                       5.947
   -- Physics & Parameterization             1.311
   -- Diagnostics Out                        0.000
  => GEOS-Chem Column                      276.186
  ===> Total Chemistry                     282.132
  => WRF                                  3075.121
  ===> Total WRF-GC                       3357.253
 max optd  1.9364301E+31
 max taucldi  5.5164285E-04
 max taucldw  2.1619469E-04
 Switching is not necessary as we are already
 in the right domain!
 GIGC_Chunk_Run: Running for in-PET grid #           1
 GIGC_Chunk_Run: Received new grid IM, JM, LM =          15           9
          49
 =================================================
 W R F - G C   T I M E R S
    Domain           1 (Units: s)
 =================================================
  => Coupler Component                       5.988
   -- Physics & Parameterization             1.321
   -- Diagnostics Out                        0.000
  => GEOS-Chem Column                      277.200
  ===> Total Chemistry                     283.188
  => WRF                                  3093.908
  ===> Total WRF-GC                       3377.096
d01 2018-01-01_12:00:00 wrf: SUCCESS COMPLETE WRF
