taskid: 2817 hostname: ip-172-31-9-210
Quilting with   1 groups of   0 I/O tasks.
 Ntasks in X           64 , ntasks in Y           72
--- WARNING: traj_opt is zero, but num_traj is not zero; setting num_traj to zero.
--- NOTE: sst_update is 0, setting io_form_auxinput4 = 0 and auxinput4_interval = 0 for all domains
--- NOTE: grid_fdda is 0 for domain      1, setting gfdda interval and ending time to 0 for that domain.
--- NOTE: both grid_sfdda and pxlsm_soil_nudge are 0 for domain      1, setting sgfdda interval and ending time to 0 for that domain.
--- NOTE: obs_nudge_opt is 0 for domain      1, setting obs nudging interval and ending time to 0 for that domain.
--- NOTE: bl_pbl_physics /= 4, implies mfshconv must be 0, resetting
Need MYNN PBL for icloud_bl = 1, resetting to 0
*************************************
No physics suite selected.
Physics options will be used directly from the namelist.
*************************************
--- NOTE: RRTMG radiation is in use, setting:  levsiz=59, alevsiz=12, no_src_types=6
--- NOTE: num_soil_layers has been set to      4
WRF V3.9.1.1 MODEL
 *************************************
 Parent domain
 ids,ide,jds,jde            1         950           1         650
 ims,ime,jms,jme            9          37         391         413
 ips,ipe,jps,jpe           16          30         398         406
 *************************************
DYNAMICS OPTION: Eulerian Mass Coordinate
   alloc_space_field: domain            1 ,              203623800  bytes allocated
  med_initialdata_input: calling input_input
Max map factor in domain 1 =  1.40. Scale the dt in the model accordingly.
INPUT LandUse = "USGS"
 LANDUSE TYPE = "USGS" FOUND          33  CATEGORIES           2  SEASONS WATER CATEGORY =           16  SNOW CATEGORY =           24
INITIALIZE THREE Noah LSM RELATED TABLES
*****************************************************************
  __          _______  ______       _____  _____ _    _ _____
  \ \        / /  __ \|  ____|     / ____|/ ____| |  | |  __ \
   \ \  /\  / /| |__) | |__ ______| |  __| |    | |__| | |__) |
    \ \/  \/ / |  _  /|  __|______| | |_ | |    |  __  |  ___/
     \  /\  /  | | \ \| |         | |__| | |____| |  | | |
      \/  \/   |_|  \_\_|          \_____|\_____|_|  |_|_|
*****************************************************************
         WRF-GC MODEL, VERSION 1811.11 - WRF BINDINGS
 For errors, suggestions & feedback email linhaipeng@pku.edu.cn
*****************************************************************
    This is domain            1
 ### GIGC_Stateful_Mod: Root CPU, after READ_INPUT_FILE
  Linoz Data:  O3 climatology :                  z*=10, 12, ..., 58                             2.700E-08 1.083E-05
  Linoz Data:  Temperature climatology :         z*=10, 12, ..., 58                             1.859E+02 2.904E+02
  Linoz Data:  Column O3 above box climalology : z*=10, 12, ..., 58                             7.538E-02 3.770E+02
  Linoz Data:  P-L O3 climatology (mr/s):        z*=10, 12, ..., 58                            -1.590E-10 2.835E-11
  Linoz Data:  d(P-L)/dO3 (1/s) :                z*=10, 12, ..., 58                            -8.386E-04 7.556E-09
  Linoz Data:  d(P-L)/dT (mr/K) :                z*=10, 12, ..., 58                            -5.742E-12 4.615E-14
  Linoz Data:  d(P-L)/d(column O3) (mr/DU) :     z*=10, 12, ..., 58                            -1.921E-12 5.038E-10
 ### GIGC_Stateful_Mod: Root CPU, after LINOZ_READ
 %%%%%%%%% GIGC IN-PET GRID SWITCHING HACKS %%%%%%%%%
     (Not very) Proudly brought to you by hplin      
 Some debug information:
 ID:           1
 IM, JM, LM:          15           9          49  will be set as PAR
 Allocs: CMN T GC F
 RC at entry-point:           0
 %%%%%%%%%%%%%%%%%%%%%%%%%%%%%%%%%%%%%%%%%%%%%%%%%%%%
 No need to switch HcoState for ID           1
 Exit RC:            0
 %%%%%%%%%    FINISHED GIGC_Switch_Dims    %%%%%%%%%
 GIGC_Chunk_Init: Received new grid IM, JM, LM =          15           9
          49
     ### GIGC_INIT_SIMULATION: after Input_Opt% setups
     ### GIGC_INIT_SIMULATION: after GC_Init_All
     ### GIGC_INIT_SIMULATION: after GC_Init_Extra
     ### GIGC_INIT_SIMULATION: after INIT_FJX
 # GIGC_CHUNK_MOD: after SV save, ID =           1
 WRFGC chemics_init: Following information regarding Input_Opt% (for all doms)
 After domain           1
 HPC:  T
 LPRT:  F
 DoConv:  T
 DoDryDep:  T
 DoEmis:  T
 DoChem:  T
 DoTurb:  T
 DoWetDep:  T

 tropopause_init: DONE intialized domain            1

 mediation_integrate: med_read_wrf_chem_emissions: Open file wrfchemi_00z_d01
 HOURLY EMISSIONS UPDATE TIME        0.0       0.0
mediation_integrate: med_read_wrf_chem_emissions: Read emissions for time 2018-01-01_00:00:00
open_aux_u : error opening wrffirechemi_d01_2018-01-01_00:00:00 for reading. 100
open_aux_u : error opening wrfchemi_gocart_bg_d01 for reading. 100
d01 2018-01-01_00:00:00 Input data processed for aux input   8 for domain   1
open_aux_u : error opening wrfchemv_d01 for reading. 100
 Tile Strategy is not specified. Assuming 1D-Y
WRF TILE   1 IS     16 IE     30 JS    398 JE    406
WRF NUMBER OF TILES =   1
 max optd  3.1147593E+38
 max taucldi  1.3563156E-19
 max taucldw  0.0000000E+00
 =================================================
 W R F - G C   T I M E R S
    Domain           1 (Units: s)
 =================================================
  => Coupler Component                       0.029
   -- Physics & Parameterization             0.001
   -- Diagnostics Out                        0.000
  => GEOS-Chem Column                        0.000
  ===> Total Chemistry                       0.029
  => WRF                                     0.000
  ===> Total WRF-GC                          0.029
 max optd  3.1147593E+38
 max taucldi  3.4627696E-08
 max taucldw  1.0000015E-14
 %%%%%%%%% GIGC IN-PET GRID SWITCHING HACKS %%%%%%%%%
     (Not very) Proudly brought to you by hplin      
 Some debug information:
 ID:           1
 IM, JM, LM:          15           9          49  will be set as PAR
 Allocs: CMN T GC T
 RC at entry-point:           0
 %%%%%%%%%%%%%%%%%%%%%%%%%%%%%%%%%%%%%%%%%%%%%%%%%%%%
 No need to switch HcoState for ID           1
 Debug HcoState nSpc, NX, NY, NZ         163          15           9          49
 Exit RC:            0
 %%%%%%%%%    FINISHED GIGC_Switch_Dims    %%%%%%%%%
 GIGC_Chunk_Run: Running for in-PET grid #           1
 GIGC_Chunk_Run: Received new grid IM, JM, LM =          15           9
          49
HEMCO: Opening /fsx/HEMCO/BIOFUEL/v2014-07/biofuel.geos.4x5.nc
HEMCO: Opening /fsx/HEMCO/BROMINE/v2015-02/Bromocarb_Liang2010.nc
HEMCO: Opening /fsx/HEMCO/ACET/v2014-07/ACET_seawater.generic.1x1.nc
HEMCO: Opening /fsx/HEMCO/SOILNOX/v2014-07/DepReservoirDefault.nc
HEMCO: Opening /fsx/HEMCO/SOILNOX/v2014-07/soilNOx.landtype.generic.025x025.1L.nc
HEMCO: Opening /fsx/HEMCO/SOILNOX/v2014-07/soilNOx.climate.generic.05x05.nc
HEMCO: Opening /fsx/HEMCO/DUST_DEAD/v2014-07/dst_tibds.geos.4x5.nc
HEMCO: Opening /fsx/HEMCO/DUST_DEAD/v2014-07/GOCART_src_fn.geos.4x5.nc
HEMCO: Opening /fsx/HEMCO/MEGAN/v2018-05/MEGAN2.1_EF.geos.025x03125.nc
HEMCO: Opening /fsx/HEMCO/MEGAN/v2017-07/CLM4_PFT.geos.025x03125.nc
HEMCO: Opening /fsx/HEMCO/TIMEZONES/v2015-02/timezones_voronoi_1x1.nc
HEMCO: Opening /fsx/HEMCO/STRAT/v2015-01/Bry/GEOSCCM_Bry.200701.day.nc
HEMCO: Opening /fsx/HEMCO/STRAT/v2015-01/Bry/GEOSCCM_Bry.200701.night.nc
HEMCO: Opening /fsx/HEMCO/OMOC/v2018-01/OMOC.DJF.01x01.nc
HEMCO: Opening /fsx/HEMCO/OMOC/v2018-01/OMOC.MAM.01x01.nc
HEMCO: Opening /fsx/HEMCO/OMOC/v2018-01/OMOC.JJA.01x01.nc
HEMCO: Opening /fsx/HEMCO/OMOC/v2018-01/OMOC.SON.01x01.nc
HEMCO: Opening /fsx/HEMCO/AnnualScalar/v2014-07/AnnualScalar.geos.1x1.nc
HEMCO: Opening /fsx/HEMCO/EDGARv42/v2015-02/NO/EDGAR_hourly_NOxScal.nc
HEMCO: Opening /fsx/HEMCO/MASKS/v2018-09/EMEP_mask.geos.1x1.20151222.nc
HEMCO: Opening /fsx/HEMCO/MASKS/v2018-09/Canada_mask.geos.1x1.nc
HEMCO: Opening /fsx/HEMCO/MASKS/v2018-09/SE_Asia_mask.generic.1x1.nc
HEMCO: Opening /fsx/HEMCO/MASKS/v2018-09/MIX_Asia_mask.generic.025x025.nc
HEMCO: Opening /fsx/HEMCO/MASKS/v2018-09/CONUS_Mask.01x01.nc
HEMCO: Opening /fsx/HEMCO/MASKS/v2018-09/AF_LANDMASK.geos.05x0666.global.nc
HEMCO: Opening /fsx/HEMCO/MASKS/v2018-09/China_mask.generic.1x1.nc
HEMCO: Opening /fsx/HEMCO/MASKS/v2018-09/India_mask.generic.1x1.nc
HEMCO: Opening /fsx/HEMCO/AnnualScalar/v2014-07/AnnualScalar.geos.1x1.nc
HEMCO: Opening /fsx/HEMCO/NH3/v2014-07/NH3_geos.4x5.nc
HEMCO: Opening /fsx/HEMCO/NH3/v2018-04/NH3_Arctic_seabirds.nc
HEMCO: Opening /fsx/HEMCO/CEDS/v2018-08/2014/NO-em-anthro_CMIP_CEDS_2014.nc
HEMCO: Opening /fsx/HEMCO/CEDS/v2018-08/2014/CO-em-anthro_CMIP_CEDS_2014.nc
HEMCO: Opening /fsx/HEMCO/CEDS/v2018-08/2014/SO2-em-anthro_CMIP_CEDS_2014.nc
HEMCO: Opening /fsx/HEMCO/CEDS/v2018-08/2014/NH3-em-anthro_CMIP_CEDS_2014.nc
HEMCO: Opening /fsx/HEMCO/CEDS/v2018-08/2014/BC-em-anthro_CMIP_CEDS_2014.nc
HEMCO: Opening /fsx/HEMCO/CEDS/v2018-08/2014/OC-em-anthro_CMIP_CEDS_2014.nc
HEMCO: Opening /fsx/HEMCO/CEDS/v2018-08/2014/EOH-em-anthro_CMIP_CEDS_2014.nc
HEMCO: Opening /fsx/HEMCO/CEDS/v2018-08/2014/C2H6-em-anthro_CMIP_CEDS_2014.nc
HEMCO: Opening /fsx/HEMCO/CEDS/v2018-08/2014/C3H8-em-anthro_CMIP_CEDS_2014.nc
HEMCO: Opening /fsx/HEMCO/CEDS/v2018-08/2014/ALK4_butanes-em-anthro_CMIP_CEDS_2014.nc
HEMCO: Opening /fsx/HEMCO/CEDS/v2018-08/2014/ALK4_pentanes-em-anthro_CMIP_CEDS_2014.nc
HEMCO: Opening /fsx/HEMCO/CEDS/v2018-08/2014/ALK4_hexanes-em-anthro_CMIP_CEDS_2014.nc
HEMCO: Opening /fsx/HEMCO/CEDS/v2018-08/2014/PRPE-em-anthro_CMIP_CEDS_2014.nc
HEMCO: Opening /fsx/HEMCO/CEDS/v2018-08/2014/BENZ-em-anthro_CMIP_CEDS_2014.nc
HEMCO: Opening /fsx/HEMCO/CEDS/v2018-08/2014/TOLU-em-anthro_CMIP_CEDS_2014.nc
HEMCO: Opening /fsx/HEMCO/CEDS/v2018-08/2014/XYLE-em-anthro_CMIP_CEDS_2014.nc
HEMCO: Opening /fsx/HEMCO/CEDS/v2018-08/2014/CH2O-em-anthro_CMIP_CEDS_2014.nc
HEMCO: Opening /fsx/HEMCO/CEDS/v2018-08/2014/ALD2-em-anthro_CMIP_CEDS_2014.nc
HEMCO: Opening /fsx/HEMCO/CEDS/v2018-08/2014/MEK-em-anthro_CMIP_CEDS_2014.nc
HEMCO: Opening /fsx/HEMCO/CEDS/v2018-08/2014/HCOOH-em-anthro_CMIP_CEDS_2014.nc
HEMCO: Opening /fsx/HEMCO/C2H6_2010/v2017-05/C2H6_global_anth_biof.201001.nc
HEMCO: Opening /fsx/HEMCO/NEI2011/v2017-02-MM/01/NEI11_0.1x0.1_201101_monmean.nc
HEMCO: Opening /fsx/HEMCO/NEI2011/v2017-02-MM/01/NEI11_0.1x0.1_201101_monmean_egu.nc
HEMCO: Opening /fsx/HEMCO/NEI2011/v2017-02-MM/01/NEI11_0.1x0.1_201101_monmean_egupk.nc
HEMCO: Opening /fsx/HEMCO/NEI2011/v2017-02-MM/01/NEI11_0.1x0.1_201101_monmean_oilgas.nc
HEMCO: Opening /fsx/HEMCO/NEI2011/v2017-02-MM/01/NEI11_0.1x0.1_201101_monmean_othpt.nc
HEMCO: Opening /fsx/HEMCO/NEI2011/v2017-02-MM/01/NEI11_0.1x0.1_201101_monmean_ptnonipm.nc
HEMCO: Opening /fsx/HEMCO/IODINE/v2017-09/CH3I_monthly_emissions_Ordonez_2012_COARDS.nc
HEMCO: Opening /fsx/HEMCO/IODINE/v2017-09/CH2I2_monthly_emissions_Ordonez_2012_COARDS.nc
HEMCO: Opening /fsx/HEMCO/IODINE/v2017-09/CH2ICl_monthly_emissions_Ordonez_2012_COARDS.nc
HEMCO: Opening /fsx/HEMCO/IODINE/v2017-09/CH2IBr_monthly_emissions_Ordonez_2012_COARDS.nc
HEMCO: Opening /fsx/HEMCO/CEDS/v2018-08/2014/CO-em-anthro_CMIP_CEDS_2014.nc
HEMCO: Opening /fsx/HEMCO/CEDS/v2018-08/2014/SO2-em-anthro_CMIP_CEDS_2014.nc
HEMCO: Opening /fsx/HEMCO/CEDS/v2018-08/2014/NH3-em-anthro_CMIP_CEDS_2014.nc
HEMCO: Opening /fsx/HEMCO/CEDS/v2018-08/2014/BC-em-anthro_CMIP_CEDS_2014.nc
HEMCO: Opening /fsx/HEMCO/CEDS/v2018-08/2014/OC-em-anthro_CMIP_CEDS_2014.nc
HEMCO: Opening /fsx/HEMCO/CEDS/v2018-08/2014/EOH-em-anthro_CMIP_CEDS_2014.nc
HEMCO: Opening /fsx/HEMCO/CEDS/v2018-08/2014/C2H6-em-anthro_CMIP_CEDS_2014.nc
HEMCO: Opening /fsx/HEMCO/CEDS/v2018-08/2014/C3H8-em-anthro_CMIP_CEDS_2014.nc
HEMCO: Opening /fsx/HEMCO/CEDS/v2018-08/2014/ALK4_butanes-em-anthro_CMIP_CEDS_2014.nc
HEMCO: Opening /fsx/HEMCO/CEDS/v2018-08/2014/ALK4_pentanes-em-anthro_CMIP_CEDS_2014.nc
HEMCO: Opening /fsx/HEMCO/CEDS/v2018-08/2014/ALK4_hexanes-em-anthro_CMIP_CEDS_2014.nc
HEMCO: Opening /fsx/HEMCO/CEDS/v2018-08/2014/PRPE-em-anthro_CMIP_CEDS_2014.nc
HEMCO: Opening /fsx/HEMCO/CEDS/v2018-08/2014/BENZ-em-anthro_CMIP_CEDS_2014.nc
HEMCO: Opening /fsx/HEMCO/CEDS/v2018-08/2014/TOLU-em-anthro_CMIP_CEDS_2014.nc
HEMCO: Opening /fsx/HEMCO/CEDS/v2018-08/2014/XYLE-em-anthro_CMIP_CEDS_2014.nc
HEMCO: Opening /fsx/HEMCO/CEDS/v2018-08/2014/CH2O-em-anthro_CMIP_CEDS_2014.nc
HEMCO: Opening /fsx/HEMCO/CEDS/v2018-08/2014/ALD2-em-anthro_CMIP_CEDS_2014.nc
HEMCO: Opening /fsx/HEMCO/CEDS/v2018-08/2014/MEK-em-anthro_CMIP_CEDS_2014.nc
HEMCO: Opening /fsx/HEMCO/CEDS/v2018-08/2014/HCOOH-em-anthro_CMIP_CEDS_2014.nc
HEMCO: Opening /fsx/HEMCO/CEDS/v2018-08/2014/NO-em-anthro_CMIP_CEDS_2014.nc
HEMCO: Opening /fsx/HEMCO/AEIC/v2015-01/AEIC.47L.gen.1x1.nc
HEMCO: Opening /fsx/HEMCO/ALD2/v2017-03/resp.geos.2x25.nc
HEMCO: Opening /fsx/HEMCO/DMS/v2015-07/DMS_lana.geos.1x1.nc
HEMCO: Opening /fsx/HEMCO/ALD2/v2017-03/ALD2_seawater.geos.2x25.nc
HEMCO: Opening /fsx/HEMCO/DUST_DEAD/v2014-07/dst_tvbds.geos.4x5.nc
HEMCO: Opening /fsx/HEMCO/DUST_DEAD/v2018-04/PM25FINE_ECLIPSE_2015.geos.2x25.nc
HEMCO: Opening /fsx/HEMCO/SOA/v2014-07/NVOC.geos.1x1.nc
HEMCO: Opening /fsx/HEMCO/GFED4/v2015-10/2016/GFED4_gen.025x025.201601.nc
HEMCO: Opening /fsx/HEMCO/UVALBEDO/v2015-03/uvalbedo.geos.2x25.nc
HEMCO: Opening /fsx/HEMCO/GMI/v2015-02/gmi.clim.ACET.geos5.2x25.nc
HEMCO: Opening /fsx/HEMCO/GMI/v2015-02/gmi.clim.ACTA.geos5.2x25.nc
HEMCO: Opening /fsx/HEMCO/GMI/v2015-02/gmi.clim.ALD2.geos5.2x25.nc
HEMCO: Opening /fsx/HEMCO/GMI/v2015-02/gmi.clim.ALK4.geos5.2x25.nc
HEMCO: Opening /fsx/HEMCO/GMI/v2015-02/gmi.clim.C2H6.geos5.2x25.nc
HEMCO: Opening /fsx/HEMCO/GMI/v2015-02/gmi.clim.C3H8.geos5.2x25.nc
HEMCO: Opening /fsx/HEMCO/GMI/v2015-02/gmi.clim.CCl4.geos5.2x25.nc
HEMCO: Opening /fsx/HEMCO/GMI/v2015-02/gmi.clim.CF2Cl2.geos5.2x25.nc
HEMCO: Opening /fsx/HEMCO/GMI/v2015-02/gmi.clim.CF2ClBr.geos5.2x25.nc
HEMCO: Opening /fsx/HEMCO/GMI/v2015-02/gmi.clim.CFC113.geos5.2x25.nc
HEMCO: Opening /fsx/HEMCO/GMI/v2015-02/gmi.clim.CFC114.geos5.2x25.nc
HEMCO: Opening /fsx/HEMCO/GMI/v2015-02/gmi.clim.CFC115.geos5.2x25.nc
HEMCO: Opening /fsx/HEMCO/GMI/v2015-02/gmi.clim.CFCl3.geos5.2x25.nc
HEMCO: Opening /fsx/HEMCO/GMI/v2015-02/gmi.clim.CH2O.geos5.2x25.nc
HEMCO: Opening /fsx/HEMCO/GMI/v2015-02/gmi.clim.CH3CCl3.geos5.2x25.nc
HEMCO: Opening /fsx/HEMCO/GMI/v2015-02/gmi.clim.CH3Cl.geos5.2x25.nc
HEMCO: Opening /fsx/HEMCO/GMI/v2015-02/gmi.clim.CH4.geos5.2x25.nc
HEMCO: Opening /fsx/HEMCO/GMI/v2015-02/gmi.clim.CO.geos5.2x25.nc
HEMCO: Opening /fsx/HEMCO/GMI/v2015-02/gmi.clim.Cl.geos5.2x25.nc
HEMCO: Opening /fsx/HEMCO/GMI/v2015-02/gmi.clim.Cl2.geos5.2x25.nc
HEMCO: Opening /fsx/HEMCO/GMI/v2015-02/gmi.clim.Cl2O2.geos5.2x25.nc
HEMCO: Opening /fsx/HEMCO/GMI/v2015-02/gmi.clim.ClO.geos5.2x25.nc
HEMCO: Opening /fsx/HEMCO/GMI/v2015-02/gmi.clim.EOH.geos5.2x25.nc
HEMCO: Opening /fsx/HEMCO/GMI/v2015-02/gmi.clim.GLYC.geos5.2x25.nc
HEMCO: Opening /fsx/HEMCO/GMI/v2015-02/gmi.clim.GLYX.geos5.2x25.nc
HEMCO: Opening /fsx/HEMCO/GMI/v2015-02/gmi.clim.H2402.geos5.2x25.nc
HEMCO: Opening /fsx/HEMCO/GMI/v2015-02/gmi.clim.H2O.geos5.2x25.nc
HEMCO: Opening /fsx/HEMCO/GMI/v2015-02/gmi.clim.H2O2.geos5.2x25.nc
HEMCO: Opening /fsx/HEMCO/GMI/v2015-02/gmi.clim.HAC.geos5.2x25.nc
HEMCO: Opening /fsx/HEMCO/GMI/v2015-02/gmi.clim.HCFC141b.geos5.2x25.nc
HEMCO: Opening /fsx/HEMCO/GMI/v2015-02/gmi.clim.HCFC142b.geos5.2x25.nc
HEMCO: Opening /fsx/HEMCO/GMI/v2015-02/gmi.clim.HCFC22.geos5.2x25.nc
HEMCO: Opening /fsx/HEMCO/GMI/v2015-02/gmi.clim.HCOOH.geos5.2x25.20170108.nc
HEMCO: Opening /fsx/HEMCO/GMI/v2015-02/gmi.clim.HCl.geos5.2x25.nc
HEMCO: Opening /fsx/HEMCO/GMI/v2015-02/gmi.clim.HNO2.geos5.2x25.nc
HEMCO: Opening /fsx/HEMCO/GMI/v2015-02/gmi.clim.HNO3.geos5.2x25.nc
HEMCO: Opening /fsx/HEMCO/GMI/v2015-02/gmi.clim.HNO4.geos5.2x25.nc
HEMCO: Opening /fsx/HEMCO/GMI/v2015-02/gmi.clim.HOCl.geos5.2x25.nc
HEMCO: Opening /fsx/HEMCO/GMI/v2015-02/gmi.clim.ISN1.geos5.2x25.nc
HEMCO: Opening /fsx/HEMCO/GMI/v2015-02/gmi.clim.ISOP.geos5.2x25.nc
HEMCO: Opening /fsx/HEMCO/GMI/v2015-02/gmi.clim.MACR.geos5.2x25.nc
HEMCO: Opening /fsx/HEMCO/GMI/v2015-02/gmi.clim.MAP.geos5.2x25.nc
HEMCO: Opening /fsx/HEMCO/GMI/v2015-02/gmi.clim.MEK.geos5.2x25.nc
HEMCO: Opening /fsx/HEMCO/GMI/v2015-02/gmi.clim.MGLY.geos5.2x25.nc
HEMCO: Opening /fsx/HEMCO/GMI/v2015-02/gmi.clim.MP.geos5.2x25.nc
HEMCO: Opening /fsx/HEMCO/GMI/v2015-02/gmi.clim.MVK.geos5.2x25.nc
HEMCO: Opening /fsx/HEMCO/GMI/v2015-02/gmi.clim.N2O.geos5.2x25.nc
HEMCO: Opening /fsx/HEMCO/GMI/v2015-02/gmi.clim.N2O5.geos5.2x25.nc
HEMCO: Opening /fsx/HEMCO/GMI/v2015-02/gmi.clim.NO.geos5.2x25.nc
HEMCO: Opening /fsx/HEMCO/GMI/v2015-02/gmi.clim.NO2.geos5.2x25.nc
HEMCO: Opening /fsx/HEMCO/GMI/v2015-02/gmi.clim.NO3.geos5.2x25.nc
HEMCO: Opening /fsx/HEMCO/GMI/v2015-02/gmi.clim.O3.geos5.2x25.nc
HEMCO: Opening /fsx/HEMCO/GMI/v2015-02/gmi.clim.OClO.geos5.2x25.nc
HEMCO: Opening /fsx/HEMCO/GMI/v2015-02/gmi.clim.PAN.geos5.2x25.nc
HEMCO: Opening /fsx/HEMCO/GMI/v2015-02/gmi.clim.NPMN.geos5.2x25.nc
HEMCO: Opening /fsx/HEMCO/GMI/v2015-02/gmi.clim.IPMN.geos5.2x25.nc
HEMCO: Opening /fsx/HEMCO/GMI/v2015-02/gmi.clim.PPN.geos5.2x25.nc
HEMCO: Opening /fsx/HEMCO/GMI/v2015-02/gmi.clim.PRPE.geos5.2x25.nc
HEMCO: Opening /fsx/HEMCO/GMI/v2015-02/gmi.clim.R4N2.geos5.2x25.nc
HEMCO: Opening /fsx/HEMCO/GMI/v2015-02/gmi.clim.RCHO.geos5.2x25.nc
HEMCO: Opening /fsx/HEMCO/GMI/v2015-02/gmi.clim.RIPA.geos5.2x25.nc
HEMCO: Opening /fsx/HEMCO/GMI/v2015-02/gmi.clim.RIPB.geos5.2x25.nc
HEMCO: Opening /fsx/HEMCO/GMI/v2015-02/gmi.clim.RIPD.geos5.2x25.nc
HEMCO: Opening /fsx/HEMCO/GMI/v2015-02/gmi.clim.OH.geos5.2x25.nc
HEMCO: Opening /fsx/HEMCO/NOAA_GMD/v2018-01/monthly.gridded.surface.methane.1979-2020.1x1.nc
HEMCO: Opening /fsx/HEMCO/GEIA/v2014-07/GEIA_monthscal.generic.1x1.nc
HEMCO: Opening /fsx/HEMCO/EMEP/v2015-03/EMEP.Seasonal.geos.1x1.nc
HEMCO: Opening /fsx/HEMCO/BROMINE/v2015-02/BromoCarb_Season.nc
HEMCO: Opening /fsx/HEMCO/EDGARv43/v2016-11/EDGAR_v43.Seasonal.1x1.nc
HEMCO: Opening /fsx/HEMCO/NEI2005/v2014-09/scaling/NEI99.dow.geos.1x1.nc
HEMCO: Opening /fsx/HEMCO/VOLCANO/v2015-02/2009/volc_so2_gen.1x1.47L.200901.nc
HEMCO: Opening /fsx/HEMCO/SOILNOX/v2014-07/soilNOx.fert_res.generic.05x05.nc
 vdinti: pbl height will be limited to bottom           25  model levels. top is
     431.250100000000       hpa
 =================================================
 W R F - G C   T I M E R S
    Domain           1 (Units: s)
 =================================================
  => Coupler Component                       0.054
   -- Physics & Parameterization             0.010
   -- Diagnostics Out                        0.000
  => GEOS-Chem Column                      130.872
  ===> Total Chemistry                     130.926
  => WRF                                    17.326
  ===> Total WRF-GC                        148.252
 max optd  1.9364301E+31
 max taucldi  4.8622053E-07
 max taucldw  1.9398415E-06
 Switching is not necessary as we are already
 in the right domain!
 GIGC_Chunk_Run: Running for in-PET grid #           1
 GIGC_Chunk_Run: Received new grid IM, JM, LM =          15           9
          49
 =================================================
 W R F - G C   T I M E R S
    Domain           1 (Units: s)
 =================================================
  => Coupler Component                       0.081
   -- Physics & Parameterization             0.021
   -- Diagnostics Out                        0.000
  => GEOS-Chem Column                      133.584
  ===> Total Chemistry                     133.666
  => WRF                                    60.053
  ===> Total WRF-GC                        193.718
 max optd  1.9364301E+31
 max taucldi  9.9894680E-07
 max taucldw  3.7750053E-06
 Switching is not necessary as we are already
 in the right domain!
 GIGC_Chunk_Run: Running for in-PET grid #           1
 GIGC_Chunk_Run: Received new grid IM, JM, LM =          15           9
          49
 =================================================
 W R F - G C   T I M E R S
    Domain           1 (Units: s)
 =================================================
  => Coupler Component                       0.107
   -- Physics & Parameterization             0.031
   -- Diagnostics Out                        0.000
  => GEOS-Chem Column                      135.119
  ===> Total Chemistry                     135.225
  => WRF                                    79.196
  ===> Total WRF-GC                        214.421
 max optd  1.9364301E+31
 max taucldi  1.5159917E-06
 max taucldw  5.5044425E-06
 Switching is not necessary as we are already
 in the right domain!
 GIGC_Chunk_Run: Running for in-PET grid #           1
 GIGC_Chunk_Run: Received new grid IM, JM, LM =          15           9
          49
 =================================================
 W R F - G C   T I M E R S
    Domain           1 (Units: s)
 =================================================
  => Coupler Component                       0.139
   -- Physics & Parameterization             0.041
   -- Diagnostics Out                        0.000
  => GEOS-Chem Column                      136.457
  ===> Total Chemistry                     136.596
  => WRF                                    97.763
  ===> Total WRF-GC                        234.359
 max optd  1.9364301E+31
 max taucldi  1.9988174E-06
 max taucldw  7.1180452E-06
 Switching is not necessary as we are already
 in the right domain!
 GIGC_Chunk_Run: Running for in-PET grid #           1
 GIGC_Chunk_Run: Received new grid IM, JM, LM =          15           9
          49
 =================================================
 W R F - G C   T I M E R S
    Domain           1 (Units: s)
 =================================================
  => Coupler Component                       0.171
   -- Physics & Parameterization             0.051
   -- Diagnostics Out                        0.000
  => GEOS-Chem Column                      137.678
  ===> Total Chemistry                     137.848
  => WRF                                   116.053
  ===> Total WRF-GC                        253.902
 max optd  1.9364301E+31
 max taucldi  2.4911619E-06
 max taucldw  8.4118210E-06
 Switching is not necessary as we are already
 in the right domain!
 GIGC_Chunk_Run: Running for in-PET grid #           1
 GIGC_Chunk_Run: Received new grid IM, JM, LM =          15           9
          49
 =================================================
 W R F - G C   T I M E R S
    Domain           1 (Units: s)
 =================================================
  => Coupler Component                       0.206
   -- Physics & Parameterization             0.062
   -- Diagnostics Out                        0.000
  => GEOS-Chem Column                      138.884
  ===> Total Chemistry                     139.089
  => WRF                                   134.338
  ===> Total WRF-GC                        273.428
 max optd  1.9364301E+31
 max taucldi  4.3179566E-06
 max taucldw  9.3071103E-06
 Switching is not necessary as we are already
 in the right domain!
 GIGC_Chunk_Run: Running for in-PET grid #           1
 GIGC_Chunk_Run: Received new grid IM, JM, LM =          15           9
          49
 =================================================
 W R F - G C   T I M E R S
    Domain           1 (Units: s)
 =================================================
  => Coupler Component                       0.238
   -- Physics & Parameterization             0.071
   -- Diagnostics Out                        0.000
  => GEOS-Chem Column                      140.081
  ===> Total Chemistry                     140.319
  => WRF                                   152.632
  ===> Total WRF-GC                        292.951
 max optd  1.9364301E+31
 max taucldi  2.8046532E-05
 max taucldw  9.7884449E-06
 Switching is not necessary as we are already
 in the right domain!
 GIGC_Chunk_Run: Running for in-PET grid #           1
 GIGC_Chunk_Run: Received new grid IM, JM, LM =          15           9
          49
 =================================================
 W R F - G C   T I M E R S
    Domain           1 (Units: s)
 =================================================
  => Coupler Component                       0.271
   -- Physics & Parameterization             0.081
   -- Diagnostics Out                        0.000
  => GEOS-Chem Column                      141.271
  ===> Total Chemistry                     141.542
  => WRF                                   170.861
  ===> Total WRF-GC                        312.403
 max optd  1.9364301E+31
 max taucldi  1.4355470E-03
 max taucldw  1.0018362E-05
 Switching is not necessary as we are already
 in the right domain!
 GIGC_Chunk_Run: Running for in-PET grid #           1
 GIGC_Chunk_Run: Received new grid IM, JM, LM =          15           9
          49
 =================================================
 W R F - G C   T I M E R S
    Domain           1 (Units: s)
 =================================================
  => Coupler Component                       0.300
   -- Physics & Parameterization             0.092
   -- Diagnostics Out                        0.000
  => GEOS-Chem Column                      142.432
  ===> Total Chemistry                     142.733
  => WRF                                   189.105
  ===> Total WRF-GC                        331.837
 max optd  1.9364301E+31
 max taucldi  7.2704390E-02
 max taucldw  1.0181002E-05
 Switching is not necessary as we are already
 in the right domain!
 GIGC_Chunk_Run: Running for in-PET grid #           1
 GIGC_Chunk_Run: Received new grid IM, JM, LM =          15           9
          49
 =================================================
 W R F - G C   T I M E R S
    Domain           1 (Units: s)
 =================================================
  => Coupler Component                       0.331
   -- Physics & Parameterization             0.102
   -- Diagnostics Out                        0.000
  => GEOS-Chem Column                      143.609
  ===> Total Chemistry                     143.939
  => WRF                                   207.433
  ===> Total WRF-GC                        351.373
 max optd  1.9364301E+31
 max taucldi  7.7138498E-02
 max taucldw  1.0440270E-05
 Switching is not necessary as we are already
 in the right domain!
 GIGC_Chunk_Run: Running for in-PET grid #           1
 GIGC_Chunk_Run: Received new grid IM, JM, LM =          15           9
          49
 =================================================
 W R F - G C   T I M E R S
    Domain           1 (Units: s)
 =================================================
  => Coupler Component                       0.358
   -- Physics & Parameterization             0.111
   -- Diagnostics Out                        0.000
  => GEOS-Chem Column                      144.784
  ===> Total Chemistry                     145.142
  => WRF                                   225.680
  ===> Total WRF-GC                        370.821
 max optd  1.9364301E+31
 max taucldi  8.2387798E-02
 max taucldw  1.0921315E-05
 Switching is not necessary as we are already
 in the right domain!
 GIGC_Chunk_Run: Running for in-PET grid #           1
 GIGC_Chunk_Run: Received new grid IM, JM, LM =          15           9
          49
 =================================================
 W R F - G C   T I M E R S
    Domain           1 (Units: s)
 =================================================
  => Coupler Component                       0.387
   -- Physics & Parameterization             0.122
   -- Diagnostics Out                        0.000
  => GEOS-Chem Column                      145.944
  ===> Total Chemistry                     146.331
  => WRF                                   243.804
  ===> Total WRF-GC                        390.135
 HOURLY EMISSIONS UPDATE TIME     3600.0       0.0
mediation_integrate: med_read_wrf_chem_emissions: Read emissions for time 2018-01-01_01:00:00
 max optd  1.9364301E+31
 max taucldi  8.9914218E-02
 max taucldw  1.1508670E-05
 Switching is not necessary as we are already
 in the right domain!
 GIGC_Chunk_Run: Running for in-PET grid #           1
 GIGC_Chunk_Run: Received new grid IM, JM, LM =          15           9
          49
 =================================================
 W R F - G C   T I M E R S
    Domain           1 (Units: s)
 =================================================
  => Coupler Component                       0.417
   -- Physics & Parameterization             0.132
   -- Diagnostics Out                        0.000
  => GEOS-Chem Column                      147.111
  ===> Total Chemistry                     147.527
  => WRF                                   262.017
  ===> Total WRF-GC                        409.544
 max optd  1.9364301E+31
 max taucldi  0.1456434    
 max taucldw  1.2076973E-05
 Switching is not necessary as we are already
 in the right domain!
 GIGC_Chunk_Run: Running for in-PET grid #           1
 GIGC_Chunk_Run: Received new grid IM, JM, LM =          15           9
          49
 =================================================
 W R F - G C   T I M E R S
    Domain           1 (Units: s)
 =================================================
  => Coupler Component                       0.447
   -- Physics & Parameterization             0.142
   -- Diagnostics Out                        0.000
  => GEOS-Chem Column                      148.282
  ===> Total Chemistry                     148.729
  => WRF                                   280.220
  ===> Total WRF-GC                        428.949
 max optd  1.9364301E+31
 max taucldi  0.1658400    
 max taucldw  1.2720704E-05
 Switching is not necessary as we are already
 in the right domain!
 GIGC_Chunk_Run: Running for in-PET grid #           1
 GIGC_Chunk_Run: Received new grid IM, JM, LM =          15           9
          49
 =================================================
 W R F - G C   T I M E R S
    Domain           1 (Units: s)
 =================================================
  => Coupler Component                       0.479
   -- Physics & Parameterization             0.152
   -- Diagnostics Out                        0.000
  => GEOS-Chem Column                      149.443
  ===> Total Chemistry                     149.922
  => WRF                                   298.307
  ===> Total WRF-GC                        448.229
 max optd  1.9364301E+31
 max taucldi  0.1758465    
 max taucldw  1.3470389E-05
 Switching is not necessary as we are already
 in the right domain!
 GIGC_Chunk_Run: Running for in-PET grid #           1
 GIGC_Chunk_Run: Received new grid IM, JM, LM =          15           9
          49
 =================================================
 W R F - G C   T I M E R S
    Domain           1 (Units: s)
 =================================================
  => Coupler Component                       0.511
   -- Physics & Parameterization             0.163
   -- Diagnostics Out                        0.000
  => GEOS-Chem Column                      150.608
  ===> Total Chemistry                     151.119
  => WRF                                   316.469
  ===> Total WRF-GC                        467.588
 max optd  1.9364301E+31
 max taucldi  0.1911671    
 max taucldw  1.4314142E-05
 Switching is not necessary as we are already
 in the right domain!
 GIGC_Chunk_Run: Running for in-PET grid #           1
 GIGC_Chunk_Run: Received new grid IM, JM, LM =          15           9
          49
 =================================================
 W R F - G C   T I M E R S
    Domain           1 (Units: s)
 =================================================
  => Coupler Component                       0.544
   -- Physics & Parameterization             0.173
   -- Diagnostics Out                        0.000
  => GEOS-Chem Column                      151.722
  ===> Total Chemistry                     152.266
  => WRF                                   334.596
  ===> Total WRF-GC                        486.862
 max optd  1.9364301E+31
 max taucldi  0.2066220    
 max taucldw  1.5166012E-05
 Switching is not necessary as we are already
 in the right domain!
 GIGC_Chunk_Run: Running for in-PET grid #           1
 GIGC_Chunk_Run: Received new grid IM, JM, LM =          15           9
          49
 =================================================
 W R F - G C   T I M E R S
    Domain           1 (Units: s)
 =================================================
  => Coupler Component                       0.578
   -- Physics & Parameterization             0.183
   -- Diagnostics Out                        0.000
  => GEOS-Chem Column                      152.776
  ===> Total Chemistry                     153.353
  => WRF                                   352.733
  ===> Total WRF-GC                        506.086
 max optd  1.9364301E+31
 max taucldi  0.2151187    
 max taucldw  1.6424532E-05
 Switching is not necessary as we are already
 in the right domain!
 GIGC_Chunk_Run: Running for in-PET grid #           1
 GIGC_Chunk_Run: Received new grid IM, JM, LM =          15           9
          49
 =================================================
 W R F - G C   T I M E R S
    Domain           1 (Units: s)
 =================================================
  => Coupler Component                       0.611
   -- Physics & Parameterization             0.194
   -- Diagnostics Out                        0.000
  => GEOS-Chem Column                      153.832
  ===> Total Chemistry                     154.444
  => WRF                                   370.986
  ===> Total WRF-GC                        525.430
 max optd  1.9364301E+31
 max taucldi  0.2154695    
 max taucldw  1.7806820E-05
 Switching is not necessary as we are already
 in the right domain!
 GIGC_Chunk_Run: Running for in-PET grid #           1
 GIGC_Chunk_Run: Received new grid IM, JM, LM =          15           9
          49
 =================================================
 W R F - G C   T I M E R S
    Domain           1 (Units: s)
 =================================================
  => Coupler Component                       0.646
   -- Physics & Parameterization             0.204
   -- Diagnostics Out                        0.000
  => GEOS-Chem Column                      154.876
  ===> Total Chemistry                     155.522
  => WRF                                   389.336
  ===> Total WRF-GC                        544.858
 max optd  1.9364301E+31
 max taucldi  0.2152659    
 max taucldw  1.9171292E-05
 Switching is not necessary as we are already
 in the right domain!
 GIGC_Chunk_Run: Running for in-PET grid #           1
 GIGC_Chunk_Run: Received new grid IM, JM, LM =          15           9
          49
 =================================================
 W R F - G C   T I M E R S
    Domain           1 (Units: s)
 =================================================
  => Coupler Component                       0.681
   -- Physics & Parameterization             0.214
   -- Diagnostics Out                        0.000
  => GEOS-Chem Column                      155.941
  ===> Total Chemistry                     156.622
  => WRF                                   407.448
  ===> Total WRF-GC                        564.071
 max optd  1.9364301E+31
 max taucldi  0.2241306    
 max taucldw  2.0531535E-05
 Switching is not necessary as we are already
 in the right domain!
 GIGC_Chunk_Run: Running for in-PET grid #           1
 GIGC_Chunk_Run: Received new grid IM, JM, LM =          15           9
          49
 =================================================
 W R F - G C   T I M E R S
    Domain           1 (Units: s)
 =================================================
  => Coupler Component                       0.714
   -- Physics & Parameterization             0.224
   -- Diagnostics Out                        0.000
  => GEOS-Chem Column                      156.996
  ===> Total Chemistry                     157.710
  => WRF                                   425.620
  ===> Total WRF-GC                        583.330
 max optd  1.9364301E+31
 max taucldi  0.2318642    
 max taucldw  2.1850192E-05
 Switching is not necessary as we are already
 in the right domain!
 GIGC_Chunk_Run: Running for in-PET grid #           1
 GIGC_Chunk_Run: Received new grid IM, JM, LM =          15           9
          49
 =================================================
 W R F - G C   T I M E R S
    Domain           1 (Units: s)
 =================================================
  => Coupler Component                       0.748
   -- Physics & Parameterization             0.235
   -- Diagnostics Out                        0.000
  => GEOS-Chem Column                      158.049
  ===> Total Chemistry                     158.798
  => WRF                                   443.904
  ===> Total WRF-GC                        602.702
 max optd  1.9364301E+31
 max taucldi  0.2377680    
 max taucldw  2.3155631E-05
 Switching is not necessary as we are already
 in the right domain!
 GIGC_Chunk_Run: Running for in-PET grid #           1
 GIGC_Chunk_Run: Received new grid IM, JM, LM =          15           9
          49
 =================================================
 W R F - G C   T I M E R S
    Domain           1 (Units: s)
 =================================================
  => Coupler Component                       0.783
   -- Physics & Parameterization             0.245
   -- Diagnostics Out                        0.000
  => GEOS-Chem Column                      159.112
  ===> Total Chemistry                     159.895
  => WRF                                   462.075
  ===> Total WRF-GC                        621.971
 HOURLY EMISSIONS UPDATE TIME     7200.0       0.0
mediation_integrate: med_read_wrf_chem_emissions: Read emissions for time 2018-01-01_02:00:00
 max optd  1.9364301E+31
 max taucldi  0.2511165    
 max taucldw  2.4448795E-05
 Switching is not necessary as we are already
 in the right domain!
 GIGC_Chunk_Run: Running for in-PET grid #           1
 GIGC_Chunk_Run: Received new grid IM, JM, LM =          15           9
          49
 =================================================
 W R F - G C   T I M E R S
    Domain           1 (Units: s)
 =================================================
  => Coupler Component                       0.816
   -- Physics & Parameterization             0.256
   -- Diagnostics Out                        0.000
  => GEOS-Chem Column                      160.164
  ===> Total Chemistry                     160.980
  => WRF                                   480.285
  ===> Total WRF-GC                        641.266
 max optd  1.9364301E+31
 max taucldi  0.2698972    
 max taucldw  2.5723311E-05
 Switching is not necessary as we are already
 in the right domain!
 GIGC_Chunk_Run: Running for in-PET grid #           1
 GIGC_Chunk_Run: Received new grid IM, JM, LM =          15           9
          49
 =================================================
 W R F - G C   T I M E R S
    Domain           1 (Units: s)
 =================================================
  => Coupler Component                       0.849
   -- Physics & Parameterization             0.266
   -- Diagnostics Out                        0.000
  => GEOS-Chem Column                      161.219
  ===> Total Chemistry                     162.068
  => WRF                                   498.508
  ===> Total WRF-GC                        660.576
 max optd  1.9364301E+31
 max taucldi  0.3086073    
 max taucldw  2.6973892E-05
 Switching is not necessary as we are already
 in the right domain!
 GIGC_Chunk_Run: Running for in-PET grid #           1
 GIGC_Chunk_Run: Received new grid IM, JM, LM =          15           9
          49
 =================================================
 W R F - G C   T I M E R S
    Domain           1 (Units: s)
 =================================================
  => Coupler Component                       0.884
   -- Physics & Parameterization             0.277
   -- Diagnostics Out                        0.000
  => GEOS-Chem Column                      162.283
  ===> Total Chemistry                     163.167
  => WRF                                   516.609
  ===> Total WRF-GC                        679.776
 max optd  1.9364301E+31
 max taucldi  0.3418462    
 max taucldw  2.8193175E-05
 Switching is not necessary as we are already
 in the right domain!
 GIGC_Chunk_Run: Running for in-PET grid #           1
 GIGC_Chunk_Run: Received new grid IM, JM, LM =          15           9
          49
 =================================================
 W R F - G C   T I M E R S
    Domain           1 (Units: s)
 =================================================
  => Coupler Component                       0.916
   -- Physics & Parameterization             0.288
   -- Diagnostics Out                        0.000
  => GEOS-Chem Column                      163.355
  ===> Total Chemistry                     164.272
  => WRF                                   534.726
  ===> Total WRF-GC                        698.998
 max optd  1.9364301E+31
 max taucldi  0.3671550    
 max taucldw  2.9387396E-05
 Switching is not necessary as we are already
 in the right domain!
 GIGC_Chunk_Run: Running for in-PET grid #           1
 GIGC_Chunk_Run: Received new grid IM, JM, LM =          15           9
          49
 =================================================
 W R F - G C   T I M E R S
    Domain           1 (Units: s)
 =================================================
  => Coupler Component                       0.951
   -- Physics & Parameterization             0.298
   -- Diagnostics Out                        0.000
  => GEOS-Chem Column                      164.415
  ===> Total Chemistry                     165.365
  => WRF                                   552.854
  ===> Total WRF-GC                        718.219
 max optd  1.9364301E+31
 max taucldi  0.3868957    
 max taucldw  3.0582141E-05
 Switching is not necessary as we are already
 in the right domain!
 GIGC_Chunk_Run: Running for in-PET grid #           1
 GIGC_Chunk_Run: Received new grid IM, JM, LM =          15           9
          49
 =================================================
 W R F - G C   T I M E R S
    Domain           1 (Units: s)
 =================================================
  => Coupler Component                       0.983
   -- Physics & Parameterization             0.309
   -- Diagnostics Out                        0.000
  => GEOS-Chem Column                      165.477
  ===> Total Chemistry                     166.459
  => WRF                                   570.983
  ===> Total WRF-GC                        737.442
 max optd  1.9364301E+31
 max taucldi  0.4018583    
 max taucldw  3.1746982E-05
 Switching is not necessary as we are already
 in the right domain!
 GIGC_Chunk_Run: Running for in-PET grid #           1
 GIGC_Chunk_Run: Received new grid IM, JM, LM =          15           9
          49
 =================================================
 W R F - G C   T I M E R S
    Domain           1 (Units: s)
 =================================================
  => Coupler Component                       1.016
   -- Physics & Parameterization             0.319
   -- Diagnostics Out                        0.000
  => GEOS-Chem Column                      166.541
  ===> Total Chemistry                     167.557
  => WRF                                   589.124
  ===> Total WRF-GC                        756.680
 max optd  1.9364301E+31
 max taucldi  0.4117204    
 max taucldw  3.2821732E-05
 Switching is not necessary as we are already
 in the right domain!
 GIGC_Chunk_Run: Running for in-PET grid #           1
 GIGC_Chunk_Run: Received new grid IM, JM, LM =          15           9
          49
 =================================================
 W R F - G C   T I M E R S
    Domain           1 (Units: s)
 =================================================
  => Coupler Component                       1.048
   -- Physics & Parameterization             0.330
   -- Diagnostics Out                        0.000
  => GEOS-Chem Column                      167.588
  ===> Total Chemistry                     168.636
  => WRF                                   607.197
  ===> Total WRF-GC                        775.834
 max optd  1.9364301E+31
 max taucldi  0.4339375    
 max taucldw  3.3788983E-05
 Switching is not necessary as we are already
 in the right domain!
 GIGC_Chunk_Run: Running for in-PET grid #           1
 GIGC_Chunk_Run: Received new grid IM, JM, LM =          15           9
          49
 =================================================
 W R F - G C   T I M E R S
    Domain           1 (Units: s)
 =================================================
  => Coupler Component                       1.088
   -- Physics & Parameterization             0.340
   -- Diagnostics Out                        0.000
  => GEOS-Chem Column                      168.639
  ===> Total Chemistry                     169.728
  => WRF                                   625.310
  ===> Total WRF-GC                        795.038
 max optd  1.9364301E+31
 max taucldi  0.4521470    
 max taucldw  3.4595760E-05
 Switching is not necessary as we are already
 in the right domain!
 GIGC_Chunk_Run: Running for in-PET grid #           1
 GIGC_Chunk_Run: Received new grid IM, JM, LM =          15           9
          49
 =================================================
 W R F - G C   T I M E R S
    Domain           1 (Units: s)
 =================================================
  => Coupler Component                       1.123
   -- Physics & Parameterization             0.350
   -- Diagnostics Out                        0.000
  => GEOS-Chem Column                      169.702
  ===> Total Chemistry                     170.824
  => WRF                                   643.451
  ===> Total WRF-GC                        814.275
 max optd  1.9364301E+31
 max taucldi  0.4604467    
 max taucldw  3.5255078E-05
 Switching is not necessary as we are already
 in the right domain!
 GIGC_Chunk_Run: Running for in-PET grid #           1
 GIGC_Chunk_Run: Received new grid IM, JM, LM =          15           9
          49
 =================================================
 W R F - G C   T I M E R S
    Domain           1 (Units: s)
 =================================================
  => Coupler Component                       1.157
   -- Physics & Parameterization             0.361
   -- Diagnostics Out                        0.000
  => GEOS-Chem Column                      170.764
  ===> Total Chemistry                     171.922
  => WRF                                   661.505
  ===> Total WRF-GC                        833.426
 max optd  1.9364301E+31
 max taucldi  0.4613172    
 max taucldw  3.5814403E-05
 Switching is not necessary as we are already
 in the right domain!
 GIGC_Chunk_Run: Running for in-PET grid #           1
 GIGC_Chunk_Run: Received new grid IM, JM, LM =          15           9
          49
 =================================================
 W R F - G C   T I M E R S
    Domain           1 (Units: s)
 =================================================
  => Coupler Component                       1.190
   -- Physics & Parameterization             0.372
   -- Diagnostics Out                        0.000
  => GEOS-Chem Column                      171.815
  ===> Total Chemistry                     173.005
  => WRF                                   679.576
  ===> Total WRF-GC                        852.582
 HOURLY EMISSIONS UPDATE TIME    10800.0       0.0
mediation_integrate: med_read_wrf_chem_emissions: Read emissions for time 2018-01-01_03:00:00
 max optd  1.9364301E+31
 max taucldi  0.4517982    
 max taucldw  3.6262303E-05
 Switching is not necessary as we are already
 in the right domain!
 GIGC_Chunk_Run: Running for in-PET grid #           1
 GIGC_Chunk_Run: Received new grid IM, JM, LM =          15           9
          49
 =================================================
 W R F - G C   T I M E R S
    Domain           1 (Units: s)
 =================================================
  => Coupler Component                       1.224
   -- Physics & Parameterization             0.382
   -- Diagnostics Out                        0.000
  => GEOS-Chem Column                      172.880
  ===> Total Chemistry                     174.104
  => WRF                                   697.712
  ===> Total WRF-GC                        871.816
 max optd  1.9364301E+31
 max taucldi  0.4356690    
 max taucldw  3.6546131E-05
 Switching is not necessary as we are already
 in the right domain!
 GIGC_Chunk_Run: Running for in-PET grid #           1
 GIGC_Chunk_Run: Received new grid IM, JM, LM =          15           9
          49
 =================================================
 W R F - G C   T I M E R S
    Domain           1 (Units: s)
 =================================================
  => Coupler Component                       1.258
   -- Physics & Parameterization             0.393
   -- Diagnostics Out                        0.000
  => GEOS-Chem Column                      173.941
  ===> Total Chemistry                     175.199
  => WRF                                   715.789
  ===> Total WRF-GC                        890.987
 max optd  1.9364301E+31
 max taucldi  0.4417021    
 max taucldw  3.6715413E-05
 Switching is not necessary as we are already
 in the right domain!
 GIGC_Chunk_Run: Running for in-PET grid #           1
 GIGC_Chunk_Run: Received new grid IM, JM, LM =          15           9
          49
 =================================================
 W R F - G C   T I M E R S
    Domain           1 (Units: s)
 =================================================
  => Coupler Component                       1.292
   -- Physics & Parameterization             0.403
   -- Diagnostics Out                        0.000
  => GEOS-Chem Column                      174.996
  ===> Total Chemistry                     176.288
  => WRF                                   733.887
  ===> Total WRF-GC                        910.175
 max optd  1.9364301E+31
 max taucldi  0.4470642    
 max taucldw  3.6818459E-05
 Switching is not necessary as we are already
 in the right domain!
 GIGC_Chunk_Run: Running for in-PET grid #           1
 GIGC_Chunk_Run: Received new grid IM, JM, LM =          15           9
          49
 =================================================
 W R F - G C   T I M E R S
    Domain           1 (Units: s)
 =================================================
  => Coupler Component                       1.326
   -- Physics & Parameterization             0.413
   -- Diagnostics Out                        0.000
  => GEOS-Chem Column                      176.065
  ===> Total Chemistry                     177.391
  => WRF                                   751.977
  ===> Total WRF-GC                        929.368
 max optd  1.9364301E+31
 max taucldi  0.4546671    
 max taucldw  3.6865400E-05
 Switching is not necessary as we are already
 in the right domain!
 GIGC_Chunk_Run: Running for in-PET grid #           1
 GIGC_Chunk_Run: Received new grid IM, JM, LM =          15           9
          49
 =================================================
 W R F - G C   T I M E R S
    Domain           1 (Units: s)
 =================================================
  => Coupler Component                       1.359
   -- Physics & Parameterization             0.424
   -- Diagnostics Out                        0.000
  => GEOS-Chem Column                      177.114
  ===> Total Chemistry                     178.473
  => WRF                                   770.029
  ===> Total WRF-GC                        948.502
 max optd  1.9364301E+31
 max taucldi  0.4584502    
 max taucldw  3.7195761E-05
 Switching is not necessary as we are already
 in the right domain!
 GIGC_Chunk_Run: Running for in-PET grid #           1
 GIGC_Chunk_Run: Received new grid IM, JM, LM =          15           9
          49
 =================================================
 W R F - G C   T I M E R S
    Domain           1 (Units: s)
 =================================================
  => Coupler Component                       1.392
   -- Physics & Parameterization             0.434
   -- Diagnostics Out                        0.000
  => GEOS-Chem Column                      178.179
  ===> Total Chemistry                     179.571
  => WRF                                   788.389
  ===> Total WRF-GC                        967.960
 max optd  1.9364301E+31
 max taucldi  0.4624304    
 max taucldw  3.7673883E-05
 Switching is not necessary as we are already
 in the right domain!
 GIGC_Chunk_Run: Running for in-PET grid #           1
 GIGC_Chunk_Run: Received new grid IM, JM, LM =          15           9
          49
 =================================================
 W R F - G C   T I M E R S
    Domain           1 (Units: s)
 =================================================
  => Coupler Component                       1.424
   -- Physics & Parameterization             0.444
   -- Diagnostics Out                        0.000
  => GEOS-Chem Column                      179.233
  ===> Total Chemistry                     180.657
  => WRF                                   806.553
  ===> Total WRF-GC                        987.209
 max optd  1.9364301E+31
 max taucldi  0.4649981    
 max taucldw  3.8108632E-05
 Switching is not necessary as we are already
 in the right domain!
 GIGC_Chunk_Run: Running for in-PET grid #           1
 GIGC_Chunk_Run: Received new grid IM, JM, LM =          15           9
          49
 =================================================
 W R F - G C   T I M E R S
    Domain           1 (Units: s)
 =================================================
  => Coupler Component                       1.456
   -- Physics & Parameterization             0.454
   -- Diagnostics Out                        0.000
  => GEOS-Chem Column                      180.307
  ===> Total Chemistry                     181.763
  => WRF                                   824.575
  ===> Total WRF-GC                       1006.339
 max optd  1.9364301E+31
 max taucldi  0.4670785    
 max taucldw  3.8483711E-05
 Switching is not necessary as we are already
 in the right domain!
 GIGC_Chunk_Run: Running for in-PET grid #           1
 GIGC_Chunk_Run: Received new grid IM, JM, LM =          15           9
          49
 =================================================
 W R F - G C   T I M E R S
    Domain           1 (Units: s)
 =================================================
  => Coupler Component                       1.489
   -- Physics & Parameterization             0.465
   -- Diagnostics Out                        0.000
  => GEOS-Chem Column                      181.364
  ===> Total Chemistry                     182.852
  => WRF                                   842.791
  ===> Total WRF-GC                       1025.643
 max optd  1.9364301E+31
 max taucldi  0.4685887    
 max taucldw  3.8833608E-05
 Switching is not necessary as we are already
 in the right domain!
 GIGC_Chunk_Run: Running for in-PET grid #           1
 GIGC_Chunk_Run: Received new grid IM, JM, LM =          15           9
          49
 =================================================
 W R F - G C   T I M E R S
    Domain           1 (Units: s)
 =================================================
  => Coupler Component                       1.522
   -- Physics & Parameterization             0.475
   -- Diagnostics Out                        0.000
  => GEOS-Chem Column                      182.417
  ===> Total Chemistry                     183.939
  => WRF                                   860.932
  ===> Total WRF-GC                       1044.871
 max optd  1.9364301E+31
 max taucldi  0.4637301    
 max taucldw  3.9134960E-05
 Switching is not necessary as we are already
 in the right domain!
 GIGC_Chunk_Run: Running for in-PET grid #           1
 GIGC_Chunk_Run: Received new grid IM, JM, LM =          15           9
          49
 =================================================
 W R F - G C   T I M E R S
    Domain           1 (Units: s)
 =================================================
  => Coupler Component                       1.555
   -- Physics & Parameterization             0.486
   -- Diagnostics Out                        0.000
  => GEOS-Chem Column                      183.474
  ===> Total Chemistry                     185.029
  => WRF                                   879.023
  ===> Total WRF-GC                       1064.052
 max optd  1.9364301E+31
 max taucldi  0.4479389    
 max taucldw  3.9382943E-05
 Switching is not necessary as we are already
 in the right domain!
 GIGC_Chunk_Run: Running for in-PET grid #           1
 GIGC_Chunk_Run: Received new grid IM, JM, LM =          15           9
          49
 =================================================
 W R F - G C   T I M E R S
    Domain           1 (Units: s)
 =================================================
  => Coupler Component                       1.590
   -- Physics & Parameterization             0.496
   -- Diagnostics Out                        0.000
  => GEOS-Chem Column                      184.529
  ===> Total Chemistry                     186.119
  => WRF                                   897.175
  ===> Total WRF-GC                       1083.293
 HOURLY EMISSIONS UPDATE TIME    14400.0       0.0
mediation_integrate: med_read_wrf_chem_emissions: Read emissions for time 2018-01-01_04:00:00
 max optd  1.9364301E+31
 max taucldi  0.4300851    
 max taucldw  3.9614548E-05
 Switching is not necessary as we are already
 in the right domain!
 GIGC_Chunk_Run: Running for in-PET grid #           1
 GIGC_Chunk_Run: Received new grid IM, JM, LM =          15           9
          49
 =================================================
 W R F - G C   T I M E R S
    Domain           1 (Units: s)
 =================================================
  => Coupler Component                       1.623
   -- Physics & Parameterization             0.507
   -- Diagnostics Out                        0.000
  => GEOS-Chem Column                      185.588
  ===> Total Chemistry                     187.210
  => WRF                                   915.304
  ===> Total WRF-GC                       1102.514
 max optd  1.9364301E+31
 max taucldi  0.4372238    
 max taucldw  3.9865237E-05
 Switching is not necessary as we are already
 in the right domain!
 GIGC_Chunk_Run: Running for in-PET grid #           1
 GIGC_Chunk_Run: Received new grid IM, JM, LM =          15           9
          49
 =================================================
 W R F - G C   T I M E R S
    Domain           1 (Units: s)
 =================================================
  => Coupler Component                       1.656
   -- Physics & Parameterization             0.516
   -- Diagnostics Out                        0.000
  => GEOS-Chem Column                      186.647
  ===> Total Chemistry                     188.303
  => WRF                                   933.444
  ===> Total WRF-GC                       1121.748
 max optd  1.9364301E+31
 max taucldi  0.4567875    
 max taucldw  4.0146890E-05
 Switching is not necessary as we are already
 in the right domain!
 GIGC_Chunk_Run: Running for in-PET grid #           1
 GIGC_Chunk_Run: Received new grid IM, JM, LM =          15           9
          49
 =================================================
 W R F - G C   T I M E R S
    Domain           1 (Units: s)
 =================================================
  => Coupler Component                       1.693
   -- Physics & Parameterization             0.526
   -- Diagnostics Out                        0.000
  => GEOS-Chem Column                      187.703
  ===> Total Chemistry                     189.396
  => WRF                                   951.661
  ===> Total WRF-GC                       1141.057
 max optd  1.9364301E+31
 max taucldi  0.4701813    
 max taucldw  4.0367573E-05
 Switching is not necessary as we are already
 in the right domain!
 GIGC_Chunk_Run: Running for in-PET grid #           1
 GIGC_Chunk_Run: Received new grid IM, JM, LM =          15           9
          49
 =================================================
 W R F - G C   T I M E R S
    Domain           1 (Units: s)
 =================================================
  => Coupler Component                       1.724
   -- Physics & Parameterization             0.537
   -- Diagnostics Out                        0.000
  => GEOS-Chem Column                      188.755
  ===> Total Chemistry                     190.479
  => WRF                                   969.775
  ===> Total WRF-GC                       1160.254
 max optd  1.9364301E+31
 max taucldi  0.4851887    
 max taucldw  4.0518487E-05
 Switching is not necessary as we are already
 in the right domain!
 GIGC_Chunk_Run: Running for in-PET grid #           1
 GIGC_Chunk_Run: Received new grid IM, JM, LM =          15           9
          49
 =================================================
 W R F - G C   T I M E R S
    Domain           1 (Units: s)
 =================================================
  => Coupler Component                       1.764
   -- Physics & Parameterization             0.547
   -- Diagnostics Out                        0.000
  => GEOS-Chem Column                      189.781
  ===> Total Chemistry                     191.545
  => WRF                                   987.917
  ===> Total WRF-GC                       1179.462
 max optd  1.9364301E+31
 max taucldi  0.5049324    
 max taucldw  4.1214866E-05
 Switching is not necessary as we are already
 in the right domain!
 GIGC_Chunk_Run: Running for in-PET grid #           1
 GIGC_Chunk_Run: Received new grid IM, JM, LM =          15           9
          49
 =================================================
 W R F - G C   T I M E R S
    Domain           1 (Units: s)
 =================================================
  => Coupler Component                       1.795
   -- Physics & Parameterization             0.557
   -- Diagnostics Out                        0.000
  => GEOS-Chem Column                      190.838
  ===> Total Chemistry                     192.634
  => WRF                                  1006.103
  ===> Total WRF-GC                       1198.736
 max optd  1.9364301E+31
 max taucldi  0.5230990    
 max taucldw  4.2192107E-05
 Switching is not necessary as we are already
 in the right domain!
 GIGC_Chunk_Run: Running for in-PET grid #           1
 GIGC_Chunk_Run: Received new grid IM, JM, LM =          15           9
          49
 =================================================
 W R F - G C   T I M E R S
    Domain           1 (Units: s)
 =================================================
  => Coupler Component                       1.830
   -- Physics & Parameterization             0.567
   -- Diagnostics Out                        0.000
  => GEOS-Chem Column                      191.895
  ===> Total Chemistry                     193.725
  => WRF                                  1024.289
  ===> Total WRF-GC                       1218.014
 max optd  1.9364301E+31
 max taucldi  0.5304343    
 max taucldw  4.3173106E-05
 Switching is not necessary as we are already
 in the right domain!
 GIGC_Chunk_Run: Running for in-PET grid #           1
 GIGC_Chunk_Run: Received new grid IM, JM, LM =          15           9
          49
 =================================================
 W R F - G C   T I M E R S
    Domain           1 (Units: s)
 =================================================
  => Coupler Component                       1.863
   -- Physics & Parameterization             0.578
   -- Diagnostics Out                        0.000
  => GEOS-Chem Column                      192.957
  ===> Total Chemistry                     194.820
  => WRF                                  1042.397
  ===> Total WRF-GC                       1237.217
 max optd  1.9364301E+31
 max taucldi  0.5331860    
 max taucldw  4.4205386E-05
 Switching is not necessary as we are already
 in the right domain!
 GIGC_Chunk_Run: Running for in-PET grid #           1
 GIGC_Chunk_Run: Received new grid IM, JM, LM =          15           9
          49
 =================================================
 W R F - G C   T I M E R S
    Domain           1 (Units: s)
 =================================================
  => Coupler Component                       1.896
   -- Physics & Parameterization             0.588
   -- Diagnostics Out                        0.000
  => GEOS-Chem Column                      194.012
  ===> Total Chemistry                     195.908
  => WRF                                  1060.539
  ===> Total WRF-GC                       1256.447
 max optd  1.9364301E+31
 max taucldi  0.5358111    
 max taucldw  4.5234821E-05
 Switching is not necessary as we are already
 in the right domain!
 GIGC_Chunk_Run: Running for in-PET grid #           1
 GIGC_Chunk_Run: Received new grid IM, JM, LM =          15           9
          49
 =================================================
 W R F - G C   T I M E R S
    Domain           1 (Units: s)
 =================================================
  => Coupler Component                       1.930
   -- Physics & Parameterization             0.597
   -- Diagnostics Out                        0.000
  => GEOS-Chem Column                      195.078
  ===> Total Chemistry                     197.007
  => WRF                                  1078.654
  ===> Total WRF-GC                       1275.662
 max optd  1.9364301E+31
 max taucldi  0.5376183    
 max taucldw  4.6222442E-05
 Switching is not necessary as we are already
 in the right domain!
 GIGC_Chunk_Run: Running for in-PET grid #           1
 GIGC_Chunk_Run: Received new grid IM, JM, LM =          15           9
          49
 =================================================
 W R F - G C   T I M E R S
    Domain           1 (Units: s)
 =================================================
  => Coupler Component                       1.961
   -- Physics & Parameterization             0.607
   -- Diagnostics Out                        0.000
  => GEOS-Chem Column                      196.130
  ===> Total Chemistry                     198.090
  => WRF                                  1096.747
  ===> Total WRF-GC                       1294.837
 max optd  1.9364301E+31
 max taucldi  0.5348560    
 max taucldw  4.7256024E-05
 Switching is not necessary as we are already
 in the right domain!
 GIGC_Chunk_Run: Running for in-PET grid #           1
 GIGC_Chunk_Run: Received new grid IM, JM, LM =          15           9
          49
 =================================================
 W R F - G C   T I M E R S
    Domain           1 (Units: s)
 =================================================
  => Coupler Component                       1.994
   -- Physics & Parameterization             0.617
   -- Diagnostics Out                        0.000
  => GEOS-Chem Column                      197.192
  ===> Total Chemistry                     199.186
  => WRF                                  1114.819
  ===> Total WRF-GC                       1314.005
 HOURLY EMISSIONS UPDATE TIME    18000.0       0.0
mediation_integrate: med_read_wrf_chem_emissions: Read emissions for time 2018-01-01_05:00:00
 max optd  1.9364301E+31
 max taucldi  0.5286387    
 max taucldw  4.8324255E-05
 Switching is not necessary as we are already
 in the right domain!
 GIGC_Chunk_Run: Running for in-PET grid #           1
 GIGC_Chunk_Run: Received new grid IM, JM, LM =          15           9
          49
 =================================================
 W R F - G C   T I M E R S
    Domain           1 (Units: s)
 =================================================
  => Coupler Component                       2.027
   -- Physics & Parameterization             0.627
   -- Diagnostics Out                        0.000
  => GEOS-Chem Column                      198.246
  ===> Total Chemistry                     200.273
  => WRF                                  1132.980
  ===> Total WRF-GC                       1333.252
 max optd  1.9364301E+31
 max taucldi  0.5155669    
 max taucldw  4.9336231E-05
 Switching is not necessary as we are already
 in the right domain!
 GIGC_Chunk_Run: Running for in-PET grid #           1
 GIGC_Chunk_Run: Received new grid IM, JM, LM =          15           9
          49
 =================================================
 W R F - G C   T I M E R S
    Domain           1 (Units: s)
 =================================================
  => Coupler Component                       2.060
   -- Physics & Parameterization             0.637
   -- Diagnostics Out                        0.000
  => GEOS-Chem Column                      199.301
  ===> Total Chemistry                     201.361
  => WRF                                  1151.081
  ===> Total WRF-GC                       1352.442
 max optd  1.9364301E+31
 max taucldi  0.4964606    
 max taucldw  5.0291419E-05
 Switching is not necessary as we are already
 in the right domain!
 GIGC_Chunk_Run: Running for in-PET grid #           1
 GIGC_Chunk_Run: Received new grid IM, JM, LM =          15           9
          49
 =================================================
 W R F - G C   T I M E R S
    Domain           1 (Units: s)
 =================================================
  => Coupler Component                       2.093
   -- Physics & Parameterization             0.647
   -- Diagnostics Out                        0.000
  => GEOS-Chem Column                      200.353
  ===> Total Chemistry                     202.447
  => WRF                                  1169.187
  ===> Total WRF-GC                       1371.634
 max optd  1.9364301E+31
 max taucldi  0.4777797    
 max taucldw  5.1158251E-05
 Switching is not necessary as we are already
 in the right domain!
 GIGC_Chunk_Run: Running for in-PET grid #           1
 GIGC_Chunk_Run: Received new grid IM, JM, LM =          15           9
          49
 =================================================
 W R F - G C   T I M E R S
    Domain           1 (Units: s)
 =================================================
  => Coupler Component                       2.126
   -- Physics & Parameterization             0.657
   -- Diagnostics Out                        0.000
  => GEOS-Chem Column                      201.406
  ===> Total Chemistry                     203.532
  => WRF                                  1187.320
  ===> Total WRF-GC                       1390.852
 max optd  1.9364301E+31
 max taucldi  0.4668712    
 max taucldw  5.1921092E-05
 Switching is not necessary as we are already
 in the right domain!
 GIGC_Chunk_Run: Running for in-PET grid #           1
 GIGC_Chunk_Run: Received new grid IM, JM, LM =          15           9
          49
 =================================================
 W R F - G C   T I M E R S
    Domain           1 (Units: s)
 =================================================
  => Coupler Component                       2.158
   -- Physics & Parameterization             0.667
   -- Diagnostics Out                        0.000
  => GEOS-Chem Column                      202.462
  ===> Total Chemistry                     204.621
  => WRF                                  1205.513
  ===> Total WRF-GC                       1410.134
 max optd  1.9364301E+31
 max taucldi  0.4637280    
 max taucldw  5.2607887E-05
 Switching is not necessary as we are already
 in the right domain!
 GIGC_Chunk_Run: Running for in-PET grid #           1
 GIGC_Chunk_Run: Received new grid IM, JM, LM =          15           9
          49
 =================================================
 W R F - G C   T I M E R S
    Domain           1 (Units: s)
 =================================================
  => Coupler Component                       2.191
   -- Physics & Parameterization             0.677
   -- Diagnostics Out                        0.000
  => GEOS-Chem Column                      203.513
  ===> Total Chemistry                     205.704
  => WRF                                  1223.601
  ===> Total WRF-GC                       1429.305
 max optd  1.9364301E+31
 max taucldi  0.4640045    
 max taucldw  5.3278247E-05
 Switching is not necessary as we are already
 in the right domain!
 GIGC_Chunk_Run: Running for in-PET grid #           1
 GIGC_Chunk_Run: Received new grid IM, JM, LM =          15           9
          49
 =================================================
 W R F - G C   T I M E R S
    Domain           1 (Units: s)
 =================================================
  => Coupler Component                       2.224
   -- Physics & Parameterization             0.688
   -- Diagnostics Out                        0.000
  => GEOS-Chem Column                      204.578
  ===> Total Chemistry                     206.802
  => WRF                                  1241.801
  ===> Total WRF-GC                       1448.603
 max optd  1.9364301E+31
 max taucldi  0.4705816    
 max taucldw  5.3914875E-05
 Switching is not necessary as we are already
 in the right domain!
 GIGC_Chunk_Run: Running for in-PET grid #           1
 GIGC_Chunk_Run: Received new grid IM, JM, LM =          15           9
          49
 =================================================
 W R F - G C   T I M E R S
    Domain           1 (Units: s)
 =================================================
  => Coupler Component                       2.257
   -- Physics & Parameterization             0.698
   -- Diagnostics Out                        0.000
  => GEOS-Chem Column                      205.638
  ===> Total Chemistry                     207.895
  => WRF                                  1259.903
  ===> Total WRF-GC                       1467.799
 max optd  1.9364301E+31
 max taucldi  0.4743850    
 max taucldw  5.4477223E-05
 Switching is not necessary as we are already
 in the right domain!
 GIGC_Chunk_Run: Running for in-PET grid #           1
 GIGC_Chunk_Run: Received new grid IM, JM, LM =          15           9
          49
 =================================================
 W R F - G C   T I M E R S
    Domain           1 (Units: s)
 =================================================
  => Coupler Component                       2.291
   -- Physics & Parameterization             0.708
   -- Diagnostics Out                        0.000
  => GEOS-Chem Column                      206.700
  ===> Total Chemistry                     208.991
  => WRF                                  1278.068
  ===> Total WRF-GC                       1487.060
 max optd  1.9364301E+31
 max taucldi  0.4700417    
 max taucldw  5.4959004E-05
 Switching is not necessary as we are already
 in the right domain!
 GIGC_Chunk_Run: Running for in-PET grid #           1
 GIGC_Chunk_Run: Received new grid IM, JM, LM =          15           9
          49
 =================================================
 W R F - G C   T I M E R S
    Domain           1 (Units: s)
 =================================================
  => Coupler Component                       2.326
   -- Physics & Parameterization             0.718
   -- Diagnostics Out                        0.000
  => GEOS-Chem Column                      207.758
  ===> Total Chemistry                     210.084
  => WRF                                  1296.457
  ===> Total WRF-GC                       1506.541
 max optd  1.9364301E+31
 max taucldi  0.4622408    
 max taucldw  5.5441666E-05
 Switching is not necessary as we are already
 in the right domain!
 GIGC_Chunk_Run: Running for in-PET grid #           1
 GIGC_Chunk_Run: Received new grid IM, JM, LM =          15           9
          49
 =================================================
 W R F - G C   T I M E R S
    Domain           1 (Units: s)
 =================================================
  => Coupler Component                       2.362
   -- Physics & Parameterization             0.728
   -- Diagnostics Out                        0.000
  => GEOS-Chem Column                      208.809
  ===> Total Chemistry                     211.171
  => WRF                                  1314.587
  ===> Total WRF-GC                       1525.758
 max optd  1.9364301E+31
 max taucldi  0.4479851    
 max taucldw  5.5909568E-05
 Switching is not necessary as we are already
 in the right domain!
 GIGC_Chunk_Run: Running for in-PET grid #           1
 GIGC_Chunk_Run: Received new grid IM, JM, LM =          15           9
          49
 =================================================
 W R F - G C   T I M E R S
    Domain           1 (Units: s)
 =================================================
  => Coupler Component                       2.394
   -- Physics & Parameterization             0.738
   -- Diagnostics Out                        0.000
  => GEOS-Chem Column                      209.857
  ===> Total Chemistry                     212.252
  => WRF                                  1332.718
  ===> Total WRF-GC                       1544.970
 HOURLY EMISSIONS UPDATE TIME    21600.0       0.0
mediation_integrate: med_read_wrf_chem_emissions: Read emissions for time 2018-01-01_06:00:00
 max optd  1.9364301E+31
 max taucldi  0.4391455    
 max taucldw  5.6285120E-05
 Switching is not necessary as we are already
 in the right domain!
 GIGC_Chunk_Run: Running for in-PET grid #           1
 GIGC_Chunk_Run: Received new grid IM, JM, LM =          15           9
          49
 =================================================
 W R F - G C   T I M E R S
    Domain           1 (Units: s)
 =================================================
  => Coupler Component                       2.430
   -- Physics & Parameterization             0.748
   -- Diagnostics Out                        0.000
  => GEOS-Chem Column                      210.919
  ===> Total Chemistry                     213.349
  => WRF                                  1791.399
  ===> Total WRF-GC                       2004.747
 max optd  1.9364301E+31
 max taucldi  0.4272128    
 max taucldw  5.6510271E-05
 Switching is not necessary as we are already
 in the right domain!
 GIGC_Chunk_Run: Running for in-PET grid #           1
 GIGC_Chunk_Run: Received new grid IM, JM, LM =          15           9
          49
 =================================================
 W R F - G C   T I M E R S
    Domain           1 (Units: s)
 =================================================
  => Coupler Component                       2.463
   -- Physics & Parameterization             0.758
   -- Diagnostics Out                        0.000
  => GEOS-Chem Column                      211.980
  ===> Total Chemistry                     214.443
  => WRF                                  1809.534
  ===> Total WRF-GC                       2023.976
 max optd  1.9364301E+31
 max taucldi  0.4209551    
 max taucldw  5.6626628E-05
 Switching is not necessary as we are already
 in the right domain!
 GIGC_Chunk_Run: Running for in-PET grid #           1
 GIGC_Chunk_Run: Received new grid IM, JM, LM =          15           9
          49
 =================================================
 W R F - G C   T I M E R S
    Domain           1 (Units: s)
 =================================================
  => Coupler Component                       2.497
   -- Physics & Parameterization             0.768
   -- Diagnostics Out                        0.000
  => GEOS-Chem Column                      213.048
  ===> Total Chemistry                     215.545
  => WRF                                  1827.812
  ===> Total WRF-GC                       2043.357
 max optd  1.9364301E+31
 max taucldi  0.4215791    
 max taucldw  5.6684432E-05
 Switching is not necessary as we are already
 in the right domain!
 GIGC_Chunk_Run: Running for in-PET grid #           1
 GIGC_Chunk_Run: Received new grid IM, JM, LM =          15           9
          49
 =================================================
 W R F - G C   T I M E R S
    Domain           1 (Units: s)
 =================================================
  => Coupler Component                       2.536
[...]
  => GEOS-Chem Column                      259.600
  ===> Total Chemistry                     263.867
  => WRF                                  2646.629
  ===> Total WRF-GC                       2910.496
 HOURLY EMISSIONS UPDATE TIME    36000.0       0.0
mediation_integrate: med_read_wrf_chem_emissions: Read emissions for time 2018-01-01_10:00:00
 max optd  1.9364301E+31
 max taucldi  1.3479632E-02
 max taucldw  4.4457829E-05
 Switching is not necessary as we are already
 in the right domain!
 GIGC_Chunk_Run: Running for in-PET grid #           1
 GIGC_Chunk_Run: Received new grid IM, JM, LM =          15           9
          49
 =================================================
 W R F - G C   T I M E R S
    Domain           1 (Units: s)
 =================================================
  => Coupler Component                       4.308
   -- Physics & Parameterization             1.218
   -- Diagnostics Out                        0.000
  => GEOS-Chem Column                      260.616
  ===> Total Chemistry                     264.924
  => WRF                                  2664.894
  ===> Total WRF-GC                       2929.818
 max optd  1.9364301E+31
 max taucldi  1.3353677E-02
 max taucldw  4.4766904E-05
 Switching is not necessary as we are already
 in the right domain!
 GIGC_Chunk_Run: Running for in-PET grid #           1
 GIGC_Chunk_Run: Received new grid IM, JM, LM =          15           9
          49
 =================================================
 W R F - G C   T I M E R S
    Domain           1 (Units: s)
 =================================================
  => Coupler Component                       4.348
   -- Physics & Parameterization             1.228
   -- Diagnostics Out                        0.000
  => GEOS-Chem Column                      261.630
  ===> Total Chemistry                     265.978
  => WRF                                  2683.083
  ===> Total WRF-GC                       2949.060
 max optd  1.9364301E+31
 max taucldi  1.3122347E-02
 max taucldw  4.5073859E-05
 Switching is not necessary as we are already
 in the right domain!
 GIGC_Chunk_Run: Running for in-PET grid #           1
 GIGC_Chunk_Run: Received new grid IM, JM, LM =          15           9
          49
 =================================================
 W R F - G C   T I M E R S
    Domain           1 (Units: s)
 =================================================
  => Coupler Component                       4.387
   -- Physics & Parameterization             1.238
   -- Diagnostics Out                        0.000
  => GEOS-Chem Column                      262.644
  ===> Total Chemistry                     267.031
  => WRF                                  2701.263
  ===> Total WRF-GC                       2968.293
 max optd  1.9364301E+31
 max taucldi  1.2696549E-02
 max taucldw  4.5367924E-05
 Switching is not necessary as we are already
 in the right domain!
 GIGC_Chunk_Run: Running for in-PET grid #           1
 GIGC_Chunk_Run: Received new grid IM, JM, LM =          15           9
          49
 =================================================
 W R F - G C   T I M E R S
    Domain           1 (Units: s)
 =================================================
  => Coupler Component                       4.425
   -- Physics & Parameterization             1.247
   -- Diagnostics Out                        0.000
  => GEOS-Chem Column                      263.667
  ===> Total Chemistry                     268.092
  => WRF                                  2719.532
  ===> Total WRF-GC                       2987.625
 max optd  1.9364301E+31
 max taucldi  1.2190528E-02
 max taucldw  4.5641420E-05
 Switching is not necessary as we are already
 in the right domain!
 GIGC_Chunk_Run: Running for in-PET grid #           1
 GIGC_Chunk_Run: Received new grid IM, JM, LM =          15           9
          49
 =================================================
 W R F - G C   T I M E R S
    Domain           1 (Units: s)
 =================================================
  => Coupler Component                       4.466
   -- Physics & Parameterization             1.257
   -- Diagnostics Out                        0.000
  => GEOS-Chem Column                      264.696
  ===> Total Chemistry                     269.162
  => WRF                                  2737.750
  ===> Total WRF-GC                       3006.912
 max optd  1.9364301E+31
 max taucldi  1.1596426E-02
 max taucldw  4.5902951E-05
 Switching is not necessary as we are already
 in the right domain!
 GIGC_Chunk_Run: Running for in-PET grid #           1
 GIGC_Chunk_Run: Received new grid IM, JM, LM =          15           9
          49
 =================================================
 W R F - G C   T I M E R S
    Domain           1 (Units: s)
 =================================================
  => Coupler Component                       4.504
   -- Physics & Parameterization             1.267
   -- Diagnostics Out                        0.000
  => GEOS-Chem Column                      265.713
  ===> Total Chemistry                     270.217
  => WRF                                  2755.874
  ===> Total WRF-GC                       3026.091
 max optd  1.9364301E+31
 max taucldi  1.1314832E-02
 max taucldw  4.6164478E-05
 Switching is not necessary as we are already
 in the right domain!
 GIGC_Chunk_Run: Running for in-PET grid #           1
 GIGC_Chunk_Run: Received new grid IM, JM, LM =          15           9
          49
 =================================================
 W R F - G C   T I M E R S
    Domain           1 (Units: s)
 =================================================
  => Coupler Component                       4.543
   -- Physics & Parameterization             1.277
   -- Diagnostics Out                        0.000
  => GEOS-Chem Column                      266.732
  ===> Total Chemistry                     271.275
  => WRF                                  2774.093
  ===> Total WRF-GC                       3045.369
 max optd  1.9364301E+31
 max taucldi  1.1368814E-02
 max taucldw  4.6420999E-05
 Switching is not necessary as we are already
 in the right domain!
 GIGC_Chunk_Run: Running for in-PET grid #           1
 GIGC_Chunk_Run: Received new grid IM, JM, LM =          15           9
          49
 =================================================
 W R F - G C   T I M E R S
    Domain           1 (Units: s)
 =================================================
  => Coupler Component                       4.583
   -- Physics & Parameterization             1.287
   -- Diagnostics Out                        0.000
  => GEOS-Chem Column                      267.753
  ===> Total Chemistry                     272.337
  => WRF                                  2792.293
  ===> Total WRF-GC                       3064.630
 max optd  1.9364301E+31
 max taucldi  1.0800360E-02
 max taucldw  4.6659647E-05
 Switching is not necessary as we are already
 in the right domain!
 GIGC_Chunk_Run: Running for in-PET grid #           1
 GIGC_Chunk_Run: Received new grid IM, JM, LM =          15           9
          49
 =================================================
 W R F - G C   T I M E R S
    Domain           1 (Units: s)
 =================================================
  => Coupler Component                       4.622
   -- Physics & Parameterization             1.296
   -- Diagnostics Out                        0.000
  => GEOS-Chem Column                      268.768
  ===> Total Chemistry                     273.390
  => WRF                                  2810.451
  ===> Total WRF-GC                       3083.841
 max optd  1.9364301E+31
 max taucldi  1.0073874E-02
 max taucldw  4.6878162E-05
 Switching is not necessary as we are already
 in the right domain!
 GIGC_Chunk_Run: Running for in-PET grid #           1
 GIGC_Chunk_Run: Received new grid IM, JM, LM =          15           9
          49
 =================================================
 W R F - G C   T I M E R S
    Domain           1 (Units: s)
 =================================================
  => Coupler Component                       4.662
   -- Physics & Parameterization             1.306
   -- Diagnostics Out                        0.000
  => GEOS-Chem Column                      269.781
  ===> Total Chemistry                     274.443
  => WRF                                  2828.708
  ===> Total WRF-GC                       3103.151
 max optd  1.9364301E+31
 max taucldi  9.3470067E-03
 max taucldw  4.7088357E-05
 Switching is not necessary as we are already
 in the right domain!
 GIGC_Chunk_Run: Running for in-PET grid #           1
 GIGC_Chunk_Run: Received new grid IM, JM, LM =          15           9
          49
 =================================================
 W R F - G C   T I M E R S
    Domain           1 (Units: s)
 =================================================
  => Coupler Component                       4.701
   -- Physics & Parameterization             1.316
   -- Diagnostics Out                        0.000
  => GEOS-Chem Column                      270.806
  ===> Total Chemistry                     275.507
  => WRF                                  2846.899
  ===> Total WRF-GC                       3122.407
 max optd  1.9364301E+31
 max taucldi  8.5143726E-03
 max taucldw  4.7299312E-05
 Switching is not necessary as we are already
 in the right domain!
 GIGC_Chunk_Run: Running for in-PET grid #           1
 GIGC_Chunk_Run: Received new grid IM, JM, LM =          15           9
          49
 =================================================
 W R F - G C   T I M E R S
    Domain           1 (Units: s)
 =================================================
  => Coupler Component                       4.741
   -- Physics & Parameterization             1.326
   -- Diagnostics Out                        0.000
  => GEOS-Chem Column                      271.824
  ===> Total Chemistry                     276.565
  => WRF                                  2865.120
  ===> Total WRF-GC                       3141.684
 HOURLY EMISSIONS UPDATE TIME    39600.0       0.0
mediation_integrate: med_read_wrf_chem_emissions: Read emissions for time 2018-01-01_11:00:00
 max optd  1.9364301E+31
 max taucldi  7.5804074E-03
 max taucldw  4.7502148E-05
 Switching is not necessary as we are already
 in the right domain!
 GIGC_Chunk_Run: Running for in-PET grid #           1
 GIGC_Chunk_Run: Received new grid IM, JM, LM =          15           9
          49
 =================================================
 W R F - G C   T I M E R S
    Domain           1 (Units: s)
 =================================================
  => Coupler Component                       4.781
   -- Physics & Parameterization             1.335
   -- Diagnostics Out                        0.000
  => GEOS-Chem Column                      272.848
  ===> Total Chemistry                     277.629
  => WRF                                  2883.347
  ===> Total WRF-GC                       3160.976
 max optd  1.9364301E+31
 max taucldi  6.9972402E-03
 max taucldw  4.7683501E-05
 Switching is not necessary as we are already
 in the right domain!
 GIGC_Chunk_Run: Running for in-PET grid #           1
 GIGC_Chunk_Run: Received new grid IM, JM, LM =          15           9
          49
 =================================================
 W R F - G C   T I M E R S
    Domain           1 (Units: s)
 =================================================
  => Coupler Component                       4.822
   -- Physics & Parameterization             1.345
   -- Diagnostics Out                        0.000
  => GEOS-Chem Column                      273.875
  ===> Total Chemistry                     278.697
  => WRF                                  2901.504
  ===> Total WRF-GC                       3180.201
 max optd  1.9364301E+31
 max taucldi  6.2240548E-03
 max taucldw  4.7841582E-05
 Switching is not necessary as we are already
 in the right domain!
 GIGC_Chunk_Run: Running for in-PET grid #           1
 GIGC_Chunk_Run: Received new grid IM, JM, LM =          15           9
          49
 =================================================
 W R F - G C   T I M E R S
    Domain           1 (Units: s)
 =================================================
  => Coupler Component                       4.858
   -- Physics & Parameterization             1.355
   -- Diagnostics Out                        0.000
  => GEOS-Chem Column                      274.902
  ===> Total Chemistry                     279.760
  => WRF                                  2919.766
  ===> Total WRF-GC                       3199.525
 max optd  1.9364301E+31
 max taucldi  5.4007443E-03
 max taucldw  4.7987021E-05
 Switching is not necessary as we are already
 in the right domain!
 GIGC_Chunk_Run: Running for in-PET grid #           1
 GIGC_Chunk_Run: Received new grid IM, JM, LM =          15           9
          49
 =================================================
 W R F - G C   T I M E R S
    Domain           1 (Units: s)
 =================================================
  => Coupler Component                       4.895
   -- Physics & Parameterization             1.364
   -- Diagnostics Out                        0.000
  => GEOS-Chem Column                      275.918
  ===> Total Chemistry                     280.813
  => WRF                                  2938.073
  ===> Total WRF-GC                       3218.886
 max optd  1.9364301E+31
 max taucldi  4.6652332E-03
 max taucldw  4.8130667E-05
 Switching is not necessary as we are already
 in the right domain!
 GIGC_Chunk_Run: Running for in-PET grid #           1
 GIGC_Chunk_Run: Received new grid IM, JM, LM =          15           9
          49
 =================================================
 W R F - G C   T I M E R S
    Domain           1 (Units: s)
 =================================================
  => Coupler Component                       4.933
   -- Physics & Parameterization             1.374
   -- Diagnostics Out                        0.000
  => GEOS-Chem Column                      276.940
  ===> Total Chemistry                     281.873
  => WRF                                  2956.529
  ===> Total WRF-GC                       3238.402
 max optd  1.9364301E+31
 max taucldi  4.4048871E-03
 max taucldw  4.8272748E-05
 Switching is not necessary as we are already
 in the right domain!
 GIGC_Chunk_Run: Running for in-PET grid #           1
 GIGC_Chunk_Run: Received new grid IM, JM, LM =          15           9
          49
 =================================================
 W R F - G C   T I M E R S
    Domain           1 (Units: s)
 =================================================
  => Coupler Component                       4.974
   -- Physics & Parameterization             1.384
   -- Diagnostics Out                        0.000
  => GEOS-Chem Column                      277.958
  ===> Total Chemistry                     282.932
  => WRF                                  2974.964
  ===> Total WRF-GC                       3257.896
 max optd  1.9364301E+31
 max taucldi  4.2215623E-03
 max taucldw  4.8405662E-05
 Switching is not necessary as we are already
 in the right domain!
 GIGC_Chunk_Run: Running for in-PET grid #           1
 GIGC_Chunk_Run: Received new grid IM, JM, LM =          15           9
          49
 =================================================
 W R F - G C   T I M E R S
    Domain           1 (Units: s)
 =================================================
  => Coupler Component                       5.013
   -- Physics & Parameterization             1.393
   -- Diagnostics Out                        0.000
  => GEOS-Chem Column                      278.982
  ===> Total Chemistry                     283.994
  => WRF                                  2993.531
  ===> Total WRF-GC                       3277.525
 max optd  1.9364301E+31
 max taucldi  4.0638116E-03
 max taucldw  4.8526195E-05
 Switching is not necessary as we are already
 in the right domain!
 GIGC_Chunk_Run: Running for in-PET grid #           1
 GIGC_Chunk_Run: Received new grid IM, JM, LM =          15           9
          49
 =================================================
 W R F - G C   T I M E R S
    Domain           1 (Units: s)
 =================================================
  => Coupler Component                       5.054
   -- Physics & Parameterization             1.403
   -- Diagnostics Out                        0.000
  => GEOS-Chem Column                      280.014
  ===> Total Chemistry                     285.067
  => WRF                                  3012.130
  ===> Total WRF-GC                       3297.197
 max optd  1.9364301E+31
 max taucldi  3.9553056E-03
 max taucldw  4.8642036E-05
 Switching is not necessary as we are already
 in the right domain!
 GIGC_Chunk_Run: Running for in-PET grid #           1
 GIGC_Chunk_Run: Received new grid IM, JM, LM =          15           9
          49
 =================================================
 W R F - G C   T I M E R S
    Domain           1 (Units: s)
 =================================================
  => Coupler Component                       5.092
   -- Physics & Parameterization             1.413
   -- Diagnostics Out                        0.000
  => GEOS-Chem Column                      281.025
  ===> Total Chemistry                     286.117
  => WRF                                  3030.841
  ===> Total WRF-GC                       3316.959
 max optd  1.9364301E+31
 max taucldi  3.8810973E-03
 max taucldw  4.8762326E-05
 Switching is not necessary as we are already
 in the right domain!
 GIGC_Chunk_Run: Running for in-PET grid #           1
 GIGC_Chunk_Run: Received new grid IM, JM, LM =          15           9
          49
 =================================================
 W R F - G C   T I M E R S
    Domain           1 (Units: s)
 =================================================
  => Coupler Component                       5.126
   -- Physics & Parameterization             1.422
   -- Diagnostics Out                        0.000
  => GEOS-Chem Column                      282.036
  ===> Total Chemistry                     287.162
  => WRF                                  3049.783
  ===> Total WRF-GC                       3336.945
 max optd  1.9364301E+31
 max taucldi  3.8046271E-03
 max taucldw  4.8887432E-05
 Switching is not necessary as we are already
 in the right domain!
 GIGC_Chunk_Run: Running for in-PET grid #           1
 GIGC_Chunk_Run: Received new grid IM, JM, LM =          15           9
          49
 =================================================
 W R F - G C   T I M E R S
    Domain           1 (Units: s)
 =================================================
  => Coupler Component                       5.165
   -- Physics & Parameterization             1.432
   -- Diagnostics Out                        0.000
  => GEOS-Chem Column                      283.054
  ===> Total Chemistry                     288.219
  => WRF                                  3068.640
  ===> Total WRF-GC                       3356.859
 max optd  1.9364301E+31
 max taucldi  3.6891731E-03
 max taucldw  4.9015136E-05
 Switching is not necessary as we are already
 in the right domain!
 GIGC_Chunk_Run: Running for in-PET grid #           1
 GIGC_Chunk_Run: Received new grid IM, JM, LM =          15           9
          49
 =================================================
 W R F - G C   T I M E R S
    Domain           1 (Units: s)
 =================================================
  => Coupler Component                       5.197
   -- Physics & Parameterization             1.442
   -- Diagnostics Out                        0.000
  => GEOS-Chem Column                      284.062
  ===> Total Chemistry                     289.259
  => WRF                                  3087.422
  ===> Total WRF-GC                       3376.681
d01 2018-01-01_12:00:00 wrf: SUCCESS COMPLETE WRF
