taskid: 1891 hostname: ip-172-31-6-226
Quilting with   1 groups of   0 I/O tasks.
 Ntasks in X           64 , ntasks in Y           72
--- WARNING: traj_opt is zero, but num_traj is not zero; setting num_traj to zero.
--- NOTE: sst_update is 0, setting io_form_auxinput4 = 0 and auxinput4_interval = 0 for all domains
--- NOTE: grid_fdda is 0 for domain      1, setting gfdda interval and ending time to 0 for that domain.
--- NOTE: both grid_sfdda and pxlsm_soil_nudge are 0 for domain      1, setting sgfdda interval and ending time to 0 for that domain.
--- NOTE: obs_nudge_opt is 0 for domain      1, setting obs nudging interval and ending time to 0 for that domain.
--- NOTE: bl_pbl_physics /= 4, implies mfshconv must be 0, resetting
Need MYNN PBL for icloud_bl = 1, resetting to 0
*************************************
No physics suite selected.
Physics options will be used directly from the namelist.
*************************************
--- NOTE: RRTMG radiation is in use, setting:  levsiz=59, alevsiz=12, no_src_types=6
--- NOTE: num_soil_layers has been set to      4
WRF V3.9.1.1 MODEL
 *************************************
 Parent domain
 ids,ide,jds,jde            1         950           1         650
 ims,ime,jms,jme          511         538         256         278
 ips,ipe,jps,jpe          518         531         263         271
 *************************************
DYNAMICS OPTION: Eulerian Mass Coordinate
   alloc_space_field: domain            1 ,              197508740  bytes allocated
  med_initialdata_input: calling input_input
Max map factor in domain 1 =  1.40. Scale the dt in the model accordingly.
INPUT LandUse = "USGS"
 LANDUSE TYPE = "USGS" FOUND          33  CATEGORIES           2  SEASONS WATER CATEGORY =           16  SNOW CATEGORY =           24
INITIALIZE THREE Noah LSM RELATED TABLES
*****************************************************************
  __          _______  ______       _____  _____ _    _ _____
  \ \        / /  __ \|  ____|     / ____|/ ____| |  | |  __ \
   \ \  /\  / /| |__) | |__ ______| |  __| |    | |__| | |__) |
    \ \/  \/ / |  _  /|  __|______| | |_ | |    |  __  |  ___/
     \  /\  /  | | \ \| |         | |__| | |____| |  | | |
      \/  \/   |_|  \_\_|          \_____|\_____|_|  |_|_|
*****************************************************************
         WRF-GC MODEL, VERSION 1811.11 - WRF BINDINGS
 For errors, suggestions & feedback email linhaipeng@pku.edu.cn
*****************************************************************
    This is domain            1
 ### GIGC_Stateful_Mod: Root CPU, after READ_INPUT_FILE
  Linoz Data:  O3 climatology :                  z*=10, 12, ..., 58                             2.700E-08 1.083E-05
  Linoz Data:  Temperature climatology :         z*=10, 12, ..., 58                             1.859E+02 2.904E+02
  Linoz Data:  Column O3 above box climalology : z*=10, 12, ..., 58                             7.538E-02 3.770E+02
  Linoz Data:  P-L O3 climatology (mr/s):        z*=10, 12, ..., 58                            -1.590E-10 2.835E-11
  Linoz Data:  d(P-L)/dO3 (1/s) :                z*=10, 12, ..., 58                            -8.386E-04 7.556E-09
  Linoz Data:  d(P-L)/dT (mr/K) :                z*=10, 12, ..., 58                            -5.742E-12 4.615E-14
  Linoz Data:  d(P-L)/d(column O3) (mr/DU) :     z*=10, 12, ..., 58                            -1.921E-12 5.038E-10
 ### GIGC_Stateful_Mod: Root CPU, after LINOZ_READ
 %%%%%%%%% GIGC IN-PET GRID SWITCHING HACKS %%%%%%%%%
     (Not very) Proudly brought to you by hplin      
 Some debug information:
 ID:           1
 IM, JM, LM:          14           9          49  will be set as PAR
 Allocs: CMN T GC F
 RC at entry-point:           0
 %%%%%%%%%%%%%%%%%%%%%%%%%%%%%%%%%%%%%%%%%%%%%%%%%%%%
 No need to switch HcoState for ID           1
 Exit RC:            0
 %%%%%%%%%    FINISHED GIGC_Switch_Dims    %%%%%%%%%
 GIGC_Chunk_Init: Received new grid IM, JM, LM =          14           9
          49
     ### GIGC_INIT_SIMULATION: after Input_Opt% setups
     ### GIGC_INIT_SIMULATION: after GC_Init_All
     ### GIGC_INIT_SIMULATION: after GC_Init_Extra
     ### GIGC_INIT_SIMULATION: after INIT_FJX
 # GIGC_CHUNK_MOD: after SV save, ID =           1
 WRFGC chemics_init: Following information regarding Input_Opt% (for all doms)
 After domain           1
 HPC:  T
 LPRT:  F
 DoConv:  T
 DoDryDep:  T
 DoEmis:  T
 DoChem:  T
 DoTurb:  T
 DoWetDep:  T

 tropopause_init: DONE intialized domain            1

 mediation_integrate: med_read_wrf_chem_emissions: Open file wrfchemi_00z_d01
 HOURLY EMISSIONS UPDATE TIME        0.0       0.0
mediation_integrate: med_read_wrf_chem_emissions: Read emissions for time 2018-01-01_00:00:00
open_aux_u : error opening wrffirechemi_d01_2018-01-01_00:00:00 for reading. 100
open_aux_u : error opening wrfchemi_gocart_bg_d01 for reading. 100
d01 2018-01-01_00:00:00 Input data processed for aux input   8 for domain   1
open_aux_u : error opening wrfchemv_d01 for reading. 100
 Tile Strategy is not specified. Assuming 1D-Y
WRF TILE   1 IS    518 IE    531 JS    263 JE    271
WRF NUMBER OF TILES =   1
 max optd  1.1846396E+26
 max taucldi  1.1847148E+26
 max taucldw  0.0000000E+00
 =================================================
 W R F - G C   T I M E R S
    Domain           1 (Units: s)
 =================================================
  => Coupler Component                       0.031
   -- Physics & Parameterization             0.001
   -- Diagnostics Out                        0.000
  => GEOS-Chem Column                        0.000
  ===> Total Chemistry                       0.031
  => WRF                                     0.000
  ===> Total WRF-GC                          0.031
 max optd  1.1846396E+26
 max taucldi  1.1847148E+26
 max taucldw  1.0000006E-14
 %%%%%%%%% GIGC IN-PET GRID SWITCHING HACKS %%%%%%%%%
     (Not very) Proudly brought to you by hplin      
 Some debug information:
 ID:           1
 IM, JM, LM:          14           9          49  will be set as PAR
 Allocs: CMN T GC T
 RC at entry-point:           0
 %%%%%%%%%%%%%%%%%%%%%%%%%%%%%%%%%%%%%%%%%%%%%%%%%%%%
 No need to switch HcoState for ID           1
 Debug HcoState nSpc, NX, NY, NZ         163          14           9          49
 Exit RC:            0
 %%%%%%%%%    FINISHED GIGC_Switch_Dims    %%%%%%%%%
 GIGC_Chunk_Run: Running for in-PET grid #           1
 GIGC_Chunk_Run: Received new grid IM, JM, LM =          14           9
          49
HEMCO: Opening /fsx/HEMCO/BIOFUEL/v2014-07/biofuel.geos.4x5.nc
HEMCO: Opening /fsx/HEMCO/BROMINE/v2015-02/Bromocarb_Liang2010.nc
HEMCO: Opening /fsx/HEMCO/ACET/v2014-07/ACET_seawater.generic.1x1.nc
HEMCO: Opening /fsx/HEMCO/SOILNOX/v2014-07/DepReservoirDefault.nc
HEMCO: Opening /fsx/HEMCO/SOILNOX/v2014-07/soilNOx.landtype.generic.025x025.1L.nc
HEMCO: Opening /fsx/HEMCO/SOILNOX/v2014-07/soilNOx.climate.generic.05x05.nc
HEMCO: Opening /fsx/HEMCO/DUST_DEAD/v2014-07/dst_tibds.geos.4x5.nc
HEMCO: Opening /fsx/HEMCO/DUST_DEAD/v2014-07/GOCART_src_fn.geos.4x5.nc
HEMCO: Opening /fsx/HEMCO/MEGAN/v2018-05/MEGAN2.1_EF.geos.025x03125.nc
HEMCO: Opening /fsx/HEMCO/MEGAN/v2017-07/CLM4_PFT.geos.025x03125.nc
HEMCO: Opening /fsx/HEMCO/TIMEZONES/v2015-02/timezones_voronoi_1x1.nc
HEMCO: Opening /fsx/HEMCO/STRAT/v2015-01/Bry/GEOSCCM_Bry.200701.day.nc
HEMCO: Opening /fsx/HEMCO/STRAT/v2015-01/Bry/GEOSCCM_Bry.200701.night.nc
HEMCO: Opening /fsx/HEMCO/OMOC/v2018-01/OMOC.DJF.01x01.nc
HEMCO: Opening /fsx/HEMCO/OMOC/v2018-01/OMOC.MAM.01x01.nc
HEMCO: Opening /fsx/HEMCO/OMOC/v2018-01/OMOC.JJA.01x01.nc
HEMCO: Opening /fsx/HEMCO/OMOC/v2018-01/OMOC.SON.01x01.nc
HEMCO: Opening /fsx/HEMCO/AnnualScalar/v2014-07/AnnualScalar.geos.1x1.nc
HEMCO: Opening /fsx/HEMCO/EDGARv42/v2015-02/NO/EDGAR_hourly_NOxScal.nc
HEMCO: Opening /fsx/HEMCO/MASKS/v2018-09/EMEP_mask.geos.1x1.20151222.nc
HEMCO: Opening /fsx/HEMCO/MASKS/v2018-09/Canada_mask.geos.1x1.nc
HEMCO: Opening /fsx/HEMCO/MASKS/v2018-09/SE_Asia_mask.generic.1x1.nc
HEMCO: Opening /fsx/HEMCO/MASKS/v2018-09/MIX_Asia_mask.generic.025x025.nc
HEMCO: Opening /fsx/HEMCO/MASKS/v2018-09/CONUS_Mask.01x01.nc
HEMCO: Opening /fsx/HEMCO/MASKS/v2018-09/AF_LANDMASK.geos.05x0666.global.nc
HEMCO: Opening /fsx/HEMCO/MASKS/v2018-09/China_mask.generic.1x1.nc
HEMCO: Opening /fsx/HEMCO/MASKS/v2018-09/India_mask.generic.1x1.nc
HEMCO: Opening /fsx/HEMCO/AnnualScalar/v2014-07/AnnualScalar.geos.1x1.nc
HEMCO: Opening /fsx/HEMCO/NH3/v2014-07/NH3_geos.4x5.nc
HEMCO: Opening /fsx/HEMCO/NH3/v2018-04/NH3_Arctic_seabirds.nc
HEMCO: Opening /fsx/HEMCO/CEDS/v2018-08/2014/NO-em-anthro_CMIP_CEDS_2014.nc
HEMCO: Opening /fsx/HEMCO/CEDS/v2018-08/2014/CO-em-anthro_CMIP_CEDS_2014.nc
HEMCO: Opening /fsx/HEMCO/CEDS/v2018-08/2014/SO2-em-anthro_CMIP_CEDS_2014.nc
HEMCO: Opening /fsx/HEMCO/CEDS/v2018-08/2014/NH3-em-anthro_CMIP_CEDS_2014.nc
HEMCO: Opening /fsx/HEMCO/CEDS/v2018-08/2014/BC-em-anthro_CMIP_CEDS_2014.nc
HEMCO: Opening /fsx/HEMCO/CEDS/v2018-08/2014/OC-em-anthro_CMIP_CEDS_2014.nc
HEMCO: Opening /fsx/HEMCO/CEDS/v2018-08/2014/EOH-em-anthro_CMIP_CEDS_2014.nc
HEMCO: Opening /fsx/HEMCO/CEDS/v2018-08/2014/C2H6-em-anthro_CMIP_CEDS_2014.nc
HEMCO: Opening /fsx/HEMCO/CEDS/v2018-08/2014/C3H8-em-anthro_CMIP_CEDS_2014.nc
HEMCO: Opening /fsx/HEMCO/CEDS/v2018-08/2014/ALK4_butanes-em-anthro_CMIP_CEDS_2014.nc
HEMCO: Opening /fsx/HEMCO/CEDS/v2018-08/2014/ALK4_pentanes-em-anthro_CMIP_CEDS_2014.nc
HEMCO: Opening /fsx/HEMCO/CEDS/v2018-08/2014/ALK4_hexanes-em-anthro_CMIP_CEDS_2014.nc
HEMCO: Opening /fsx/HEMCO/CEDS/v2018-08/2014/PRPE-em-anthro_CMIP_CEDS_2014.nc
HEMCO: Opening /fsx/HEMCO/CEDS/v2018-08/2014/BENZ-em-anthro_CMIP_CEDS_2014.nc
HEMCO: Opening /fsx/HEMCO/CEDS/v2018-08/2014/TOLU-em-anthro_CMIP_CEDS_2014.nc
HEMCO: Opening /fsx/HEMCO/CEDS/v2018-08/2014/XYLE-em-anthro_CMIP_CEDS_2014.nc
HEMCO: Opening /fsx/HEMCO/CEDS/v2018-08/2014/CH2O-em-anthro_CMIP_CEDS_2014.nc
HEMCO: Opening /fsx/HEMCO/CEDS/v2018-08/2014/ALD2-em-anthro_CMIP_CEDS_2014.nc
HEMCO: Opening /fsx/HEMCO/CEDS/v2018-08/2014/MEK-em-anthro_CMIP_CEDS_2014.nc
HEMCO: Opening /fsx/HEMCO/CEDS/v2018-08/2014/HCOOH-em-anthro_CMIP_CEDS_2014.nc
HEMCO: Opening /fsx/HEMCO/C2H6_2010/v2017-05/C2H6_global_anth_biof.201001.nc
HEMCO: Opening /fsx/HEMCO/NEI2011/v2017-02-MM/01/NEI11_0.1x0.1_201101_monmean.nc
HEMCO: Opening /fsx/HEMCO/NEI2011/v2017-02-MM/01/NEI11_0.1x0.1_201101_monmean_egu.nc
HEMCO: Opening /fsx/HEMCO/NEI2011/v2017-02-MM/01/NEI11_0.1x0.1_201101_monmean_egupk.nc
HEMCO: Opening /fsx/HEMCO/NEI2011/v2017-02-MM/01/NEI11_0.1x0.1_201101_monmean_oilgas.nc
HEMCO: Opening /fsx/HEMCO/NEI2011/v2017-02-MM/01/NEI11_0.1x0.1_201101_monmean_othpt.nc
HEMCO: Opening /fsx/HEMCO/NEI2011/v2017-02-MM/01/NEI11_0.1x0.1_201101_monmean_ptnonipm.nc
HEMCO: Opening /fsx/HEMCO/IODINE/v2017-09/CH3I_monthly_emissions_Ordonez_2012_COARDS.nc
HEMCO: Opening /fsx/HEMCO/IODINE/v2017-09/CH2I2_monthly_emissions_Ordonez_2012_COARDS.nc
HEMCO: Opening /fsx/HEMCO/IODINE/v2017-09/CH2ICl_monthly_emissions_Ordonez_2012_COARDS.nc
HEMCO: Opening /fsx/HEMCO/IODINE/v2017-09/CH2IBr_monthly_emissions_Ordonez_2012_COARDS.nc
HEMCO: Opening /fsx/HEMCO/CEDS/v2018-08/2014/CO-em-anthro_CMIP_CEDS_2014.nc
HEMCO: Opening /fsx/HEMCO/CEDS/v2018-08/2014/SO2-em-anthro_CMIP_CEDS_2014.nc
HEMCO: Opening /fsx/HEMCO/CEDS/v2018-08/2014/NH3-em-anthro_CMIP_CEDS_2014.nc
HEMCO: Opening /fsx/HEMCO/CEDS/v2018-08/2014/BC-em-anthro_CMIP_CEDS_2014.nc
HEMCO: Opening /fsx/HEMCO/CEDS/v2018-08/2014/OC-em-anthro_CMIP_CEDS_2014.nc
HEMCO: Opening /fsx/HEMCO/CEDS/v2018-08/2014/EOH-em-anthro_CMIP_CEDS_2014.nc
HEMCO: Opening /fsx/HEMCO/CEDS/v2018-08/2014/C2H6-em-anthro_CMIP_CEDS_2014.nc
HEMCO: Opening /fsx/HEMCO/CEDS/v2018-08/2014/C3H8-em-anthro_CMIP_CEDS_2014.nc
HEMCO: Opening /fsx/HEMCO/CEDS/v2018-08/2014/ALK4_butanes-em-anthro_CMIP_CEDS_2014.nc
HEMCO: Opening /fsx/HEMCO/CEDS/v2018-08/2014/ALK4_pentanes-em-anthro_CMIP_CEDS_2014.nc
HEMCO: Opening /fsx/HEMCO/CEDS/v2018-08/2014/ALK4_hexanes-em-anthro_CMIP_CEDS_2014.nc
HEMCO: Opening /fsx/HEMCO/CEDS/v2018-08/2014/PRPE-em-anthro_CMIP_CEDS_2014.nc
HEMCO: Opening /fsx/HEMCO/CEDS/v2018-08/2014/BENZ-em-anthro_CMIP_CEDS_2014.nc
HEMCO: Opening /fsx/HEMCO/CEDS/v2018-08/2014/TOLU-em-anthro_CMIP_CEDS_2014.nc
HEMCO: Opening /fsx/HEMCO/CEDS/v2018-08/2014/XYLE-em-anthro_CMIP_CEDS_2014.nc
HEMCO: Opening /fsx/HEMCO/CEDS/v2018-08/2014/CH2O-em-anthro_CMIP_CEDS_2014.nc
HEMCO: Opening /fsx/HEMCO/CEDS/v2018-08/2014/ALD2-em-anthro_CMIP_CEDS_2014.nc
HEMCO: Opening /fsx/HEMCO/CEDS/v2018-08/2014/MEK-em-anthro_CMIP_CEDS_2014.nc
HEMCO: Opening /fsx/HEMCO/CEDS/v2018-08/2014/HCOOH-em-anthro_CMIP_CEDS_2014.nc
HEMCO: Opening /fsx/HEMCO/CEDS/v2018-08/2014/NO-em-anthro_CMIP_CEDS_2014.nc
HEMCO: Opening /fsx/HEMCO/AEIC/v2015-01/AEIC.47L.gen.1x1.nc
HEMCO: Opening /fsx/HEMCO/ALD2/v2017-03/resp.geos.2x25.nc
HEMCO: Opening /fsx/HEMCO/DMS/v2015-07/DMS_lana.geos.1x1.nc
HEMCO: Opening /fsx/HEMCO/ALD2/v2017-03/ALD2_seawater.geos.2x25.nc
HEMCO: Opening /fsx/HEMCO/DUST_DEAD/v2014-07/dst_tvbds.geos.4x5.nc
HEMCO: Opening /fsx/HEMCO/DUST_DEAD/v2018-04/PM25FINE_ECLIPSE_2015.geos.2x25.nc
HEMCO: Opening /fsx/HEMCO/SOA/v2014-07/NVOC.geos.1x1.nc
HEMCO: Opening /fsx/HEMCO/GFED4/v2015-10/2016/GFED4_gen.025x025.201601.nc
HEMCO: Opening /fsx/HEMCO/UVALBEDO/v2015-03/uvalbedo.geos.2x25.nc
HEMCO: Opening /fsx/HEMCO/GMI/v2015-02/gmi.clim.ACET.geos5.2x25.nc
HEMCO: Opening /fsx/HEMCO/GMI/v2015-02/gmi.clim.ACTA.geos5.2x25.nc
HEMCO: Opening /fsx/HEMCO/GMI/v2015-02/gmi.clim.ALD2.geos5.2x25.nc
HEMCO: Opening /fsx/HEMCO/GMI/v2015-02/gmi.clim.ALK4.geos5.2x25.nc
HEMCO: Opening /fsx/HEMCO/GMI/v2015-02/gmi.clim.C2H6.geos5.2x25.nc
HEMCO: Opening /fsx/HEMCO/GMI/v2015-02/gmi.clim.C3H8.geos5.2x25.nc
HEMCO: Opening /fsx/HEMCO/GMI/v2015-02/gmi.clim.CCl4.geos5.2x25.nc
HEMCO: Opening /fsx/HEMCO/GMI/v2015-02/gmi.clim.CF2Cl2.geos5.2x25.nc
HEMCO: Opening /fsx/HEMCO/GMI/v2015-02/gmi.clim.CF2ClBr.geos5.2x25.nc
HEMCO: Opening /fsx/HEMCO/GMI/v2015-02/gmi.clim.CFC113.geos5.2x25.nc
HEMCO: Opening /fsx/HEMCO/GMI/v2015-02/gmi.clim.CFC114.geos5.2x25.nc
HEMCO: Opening /fsx/HEMCO/GMI/v2015-02/gmi.clim.CFC115.geos5.2x25.nc
HEMCO: Opening /fsx/HEMCO/GMI/v2015-02/gmi.clim.CFCl3.geos5.2x25.nc
HEMCO: Opening /fsx/HEMCO/GMI/v2015-02/gmi.clim.CH2O.geos5.2x25.nc
HEMCO: Opening /fsx/HEMCO/GMI/v2015-02/gmi.clim.CH3CCl3.geos5.2x25.nc
HEMCO: Opening /fsx/HEMCO/GMI/v2015-02/gmi.clim.CH3Cl.geos5.2x25.nc
HEMCO: Opening /fsx/HEMCO/GMI/v2015-02/gmi.clim.CH4.geos5.2x25.nc
HEMCO: Opening /fsx/HEMCO/GMI/v2015-02/gmi.clim.CO.geos5.2x25.nc
HEMCO: Opening /fsx/HEMCO/GMI/v2015-02/gmi.clim.Cl.geos5.2x25.nc
HEMCO: Opening /fsx/HEMCO/GMI/v2015-02/gmi.clim.Cl2.geos5.2x25.nc
HEMCO: Opening /fsx/HEMCO/GMI/v2015-02/gmi.clim.Cl2O2.geos5.2x25.nc
HEMCO: Opening /fsx/HEMCO/GMI/v2015-02/gmi.clim.ClO.geos5.2x25.nc
HEMCO: Opening /fsx/HEMCO/GMI/v2015-02/gmi.clim.EOH.geos5.2x25.nc
HEMCO: Opening /fsx/HEMCO/GMI/v2015-02/gmi.clim.GLYC.geos5.2x25.nc
HEMCO: Opening /fsx/HEMCO/GMI/v2015-02/gmi.clim.GLYX.geos5.2x25.nc
HEMCO: Opening /fsx/HEMCO/GMI/v2015-02/gmi.clim.H2402.geos5.2x25.nc
HEMCO: Opening /fsx/HEMCO/GMI/v2015-02/gmi.clim.H2O.geos5.2x25.nc
HEMCO: Opening /fsx/HEMCO/GMI/v2015-02/gmi.clim.H2O2.geos5.2x25.nc
HEMCO: Opening /fsx/HEMCO/GMI/v2015-02/gmi.clim.HAC.geos5.2x25.nc
HEMCO: Opening /fsx/HEMCO/GMI/v2015-02/gmi.clim.HCFC141b.geos5.2x25.nc
HEMCO: Opening /fsx/HEMCO/GMI/v2015-02/gmi.clim.HCFC142b.geos5.2x25.nc
HEMCO: Opening /fsx/HEMCO/GMI/v2015-02/gmi.clim.HCFC22.geos5.2x25.nc
HEMCO: Opening /fsx/HEMCO/GMI/v2015-02/gmi.clim.HCOOH.geos5.2x25.20170108.nc
HEMCO: Opening /fsx/HEMCO/GMI/v2015-02/gmi.clim.HCl.geos5.2x25.nc
HEMCO: Opening /fsx/HEMCO/GMI/v2015-02/gmi.clim.HNO2.geos5.2x25.nc
HEMCO: Opening /fsx/HEMCO/GMI/v2015-02/gmi.clim.HNO3.geos5.2x25.nc
HEMCO: Opening /fsx/HEMCO/GMI/v2015-02/gmi.clim.HNO4.geos5.2x25.nc
HEMCO: Opening /fsx/HEMCO/GMI/v2015-02/gmi.clim.HOCl.geos5.2x25.nc
HEMCO: Opening /fsx/HEMCO/GMI/v2015-02/gmi.clim.ISN1.geos5.2x25.nc
HEMCO: Opening /fsx/HEMCO/GMI/v2015-02/gmi.clim.ISOP.geos5.2x25.nc
HEMCO: Opening /fsx/HEMCO/GMI/v2015-02/gmi.clim.MACR.geos5.2x25.nc
HEMCO: Opening /fsx/HEMCO/GMI/v2015-02/gmi.clim.MAP.geos5.2x25.nc
HEMCO: Opening /fsx/HEMCO/GMI/v2015-02/gmi.clim.MEK.geos5.2x25.nc
HEMCO: Opening /fsx/HEMCO/GMI/v2015-02/gmi.clim.MGLY.geos5.2x25.nc
HEMCO: Opening /fsx/HEMCO/GMI/v2015-02/gmi.clim.MP.geos5.2x25.nc
HEMCO: Opening /fsx/HEMCO/GMI/v2015-02/gmi.clim.MVK.geos5.2x25.nc
HEMCO: Opening /fsx/HEMCO/GMI/v2015-02/gmi.clim.N2O.geos5.2x25.nc
HEMCO: Opening /fsx/HEMCO/GMI/v2015-02/gmi.clim.N2O5.geos5.2x25.nc
HEMCO: Opening /fsx/HEMCO/GMI/v2015-02/gmi.clim.NO.geos5.2x25.nc
HEMCO: Opening /fsx/HEMCO/GMI/v2015-02/gmi.clim.NO2.geos5.2x25.nc
HEMCO: Opening /fsx/HEMCO/GMI/v2015-02/gmi.clim.NO3.geos5.2x25.nc
HEMCO: Opening /fsx/HEMCO/GMI/v2015-02/gmi.clim.O3.geos5.2x25.nc
HEMCO: Opening /fsx/HEMCO/GMI/v2015-02/gmi.clim.OClO.geos5.2x25.nc
HEMCO: Opening /fsx/HEMCO/GMI/v2015-02/gmi.clim.PAN.geos5.2x25.nc
HEMCO: Opening /fsx/HEMCO/GMI/v2015-02/gmi.clim.NPMN.geos5.2x25.nc
HEMCO: Opening /fsx/HEMCO/GMI/v2015-02/gmi.clim.IPMN.geos5.2x25.nc
HEMCO: Opening /fsx/HEMCO/GMI/v2015-02/gmi.clim.PPN.geos5.2x25.nc
HEMCO: Opening /fsx/HEMCO/GMI/v2015-02/gmi.clim.PRPE.geos5.2x25.nc
HEMCO: Opening /fsx/HEMCO/GMI/v2015-02/gmi.clim.R4N2.geos5.2x25.nc
HEMCO: Opening /fsx/HEMCO/GMI/v2015-02/gmi.clim.RCHO.geos5.2x25.nc
HEMCO: Opening /fsx/HEMCO/GMI/v2015-02/gmi.clim.RIPA.geos5.2x25.nc
HEMCO: Opening /fsx/HEMCO/GMI/v2015-02/gmi.clim.RIPB.geos5.2x25.nc
HEMCO: Opening /fsx/HEMCO/GMI/v2015-02/gmi.clim.RIPD.geos5.2x25.nc
HEMCO: Opening /fsx/HEMCO/GMI/v2015-02/gmi.clim.OH.geos5.2x25.nc
HEMCO: Opening /fsx/HEMCO/NOAA_GMD/v2018-01/monthly.gridded.surface.methane.1979-2020.1x1.nc
HEMCO: Opening /fsx/HEMCO/GEIA/v2014-07/GEIA_monthscal.generic.1x1.nc
HEMCO: Opening /fsx/HEMCO/EMEP/v2015-03/EMEP.Seasonal.geos.1x1.nc
HEMCO: Opening /fsx/HEMCO/BROMINE/v2015-02/BromoCarb_Season.nc
HEMCO: Opening /fsx/HEMCO/EDGARv43/v2016-11/EDGAR_v43.Seasonal.1x1.nc
HEMCO: Opening /fsx/HEMCO/NEI2005/v2014-09/scaling/NEI99.dow.geos.1x1.nc
HEMCO: Opening /fsx/HEMCO/VOLCANO/v2015-02/2009/volc_so2_gen.1x1.47L.200901.nc
HEMCO: Opening /fsx/HEMCO/SOILNOX/v2014-07/soilNOx.fert_res.generic.05x05.nc
 vdinti: pbl height will be limited to bottom           25  model levels. top is
     431.250100000000       hpa
 =================================================
 W R F - G C   T I M E R S
    Domain           1 (Units: s)
 =================================================
  => Coupler Component                       0.053
   -- Physics & Parameterization             0.009
   -- Diagnostics Out                        0.000
  => GEOS-Chem Column                      138.680
  ===> Total Chemistry                     138.732
  => WRF                                    17.330
  ===> Total WRF-GC                        156.062
 max optd  4.5185168E+30
 max taucldi  1.8953218E-08
 max taucldw  4.8276779E-06
 Switching is not necessary as we are already
 in the right domain!
 GIGC_Chunk_Run: Running for in-PET grid #           1
 GIGC_Chunk_Run: Received new grid IM, JM, LM =          14           9
          49
 =================================================
 W R F - G C   T I M E R S
    Domain           1 (Units: s)
 =================================================
  => Coupler Component                       0.082
   -- Physics & Parameterization             0.017
   -- Diagnostics Out                        0.000
  => GEOS-Chem Column                      139.767
  ===> Total Chemistry                     139.850
  => WRF                                    52.251
  ===> Total WRF-GC                        192.101
 max optd  4.5185168E+30
 max taucldi  3.5802451E-08
 max taucldw  6.3160837E-06
 Switching is not necessary as we are already
 in the right domain!
 GIGC_Chunk_Run: Running for in-PET grid #           1
 GIGC_Chunk_Run: Received new grid IM, JM, LM =          14           9
          49
 =================================================
 W R F - G C   T I M E R S
    Domain           1 (Units: s)
 =================================================
  => Coupler Component                       0.111
   -- Physics & Parameterization             0.026
   -- Diagnostics Out                        0.000
  => GEOS-Chem Column                      140.755
  ===> Total Chemistry                     140.865
  => WRF                                    73.027
  ===> Total WRF-GC                        213.893
 max optd  4.5185168E+30
 max taucldi  5.1194032E-08
 max taucldw  7.3032857E-06
 Switching is not necessary as we are already
 in the right domain!
 GIGC_Chunk_Run: Running for in-PET grid #           1
 GIGC_Chunk_Run: Received new grid IM, JM, LM =          14           9
          49
 =================================================
 W R F - G C   T I M E R S
    Domain           1 (Units: s)
 =================================================
  => Coupler Component                       0.137
   -- Physics & Parameterization             0.035
   -- Diagnostics Out                        0.000
  => GEOS-Chem Column                      141.721
  ===> Total Chemistry                     141.858
  => WRF                                    92.129
  ===> Total WRF-GC                        233.987
 max optd  4.5185168E+30
 max taucldi  6.5358918E-08
 max taucldw  8.0097889E-06
 Switching is not necessary as we are already
 in the right domain!
 GIGC_Chunk_Run: Running for in-PET grid #           1
 GIGC_Chunk_Run: Received new grid IM, JM, LM =          14           9
          49
 =================================================
 W R F - G C   T I M E R S
    Domain           1 (Units: s)
 =================================================
  => Coupler Component                       0.168
   -- Physics & Parameterization             0.043
   -- Diagnostics Out                        0.000
  => GEOS-Chem Column                      142.674
  ===> Total Chemistry                     142.842
  => WRF                                   110.794
  ===> Total WRF-GC                        253.636
 max optd  4.5185168E+30
 max taucldi  7.8443840E-08
 max taucldw  8.5609490E-06
 Switching is not necessary as we are already
 in the right domain!
 GIGC_Chunk_Run: Running for in-PET grid #           1
 GIGC_Chunk_Run: Received new grid IM, JM, LM =          14           9
          49
 =================================================
 W R F - G C   T I M E R S
    Domain           1 (Units: s)
 =================================================
  => Coupler Component                       0.199
   -- Physics & Parameterization             0.052
   -- Diagnostics Out                        0.000
  => GEOS-Chem Column                      143.626
  ===> Total Chemistry                     143.825
  => WRF                                   129.353
  ===> Total WRF-GC                        273.178
 max optd  4.5185168E+30
 max taucldi  9.0597638E-08
 max taucldw  9.0356998E-06
 Switching is not necessary as we are already
 in the right domain!
 GIGC_Chunk_Run: Running for in-PET grid #           1
 GIGC_Chunk_Run: Received new grid IM, JM, LM =          14           9
          49
 =================================================
 W R F - G C   T I M E R S
    Domain           1 (Units: s)
 =================================================
  => Coupler Component                       0.232
   -- Physics & Parameterization             0.061
   -- Diagnostics Out                        0.000
  => GEOS-Chem Column                      144.589
  ===> Total Chemistry                     144.821
  => WRF                                   147.913
  ===> Total WRF-GC                        292.734
 max optd  4.5185168E+30
 max taucldi  1.0180953E-07
 max taucldw  9.4228135E-06
 Switching is not necessary as we are already
 in the right domain!
 GIGC_Chunk_Run: Running for in-PET grid #           1
 GIGC_Chunk_Run: Received new grid IM, JM, LM =          14           9
          49
 =================================================
 W R F - G C   T I M E R S
    Domain           1 (Units: s)
 =================================================
  => Coupler Component                       0.264
   -- Physics & Parameterization             0.070
   -- Diagnostics Out                        0.000
  => GEOS-Chem Column                      145.546
  ===> Total Chemistry                     145.810
  => WRF                                   166.391
  ===> Total WRF-GC                        312.201
 max optd  4.5185168E+30
 max taucldi  1.1190131E-07
 max taucldw  9.6922358E-06
 Switching is not necessary as we are already
 in the right domain!
 GIGC_Chunk_Run: Running for in-PET grid #           1
 GIGC_Chunk_Run: Received new grid IM, JM, LM =          14           9
          49
 =================================================
 W R F - G C   T I M E R S
    Domain           1 (Units: s)
 =================================================
  => Coupler Component                       0.294
   -- Physics & Parameterization             0.078
   -- Diagnostics Out                        0.000
  => GEOS-Chem Column                      146.496
  ===> Total Chemistry                     146.791
  => WRF                                   184.868
  ===> Total WRF-GC                        331.659
 max optd  4.5185168E+30
 max taucldi  1.2171012E-07
 max taucldw  9.9310246E-06
 Switching is not necessary as we are already
 in the right domain!
 GIGC_Chunk_Run: Running for in-PET grid #           1
 GIGC_Chunk_Run: Received new grid IM, JM, LM =          14           9
          49
 =================================================
 W R F - G C   T I M E R S
    Domain           1 (Units: s)
 =================================================
  => Coupler Component                       0.323
   -- Physics & Parameterization             0.087
   -- Diagnostics Out                        0.000
  => GEOS-Chem Column                      147.434
  ===> Total Chemistry                     147.758
  => WRF                                   203.408
  ===> Total WRF-GC                        351.166
 max optd  4.5185168E+30
 max taucldi  1.3141472E-07
 max taucldw  1.0140537E-05
 Switching is not necessary as we are already
 in the right domain!
 GIGC_Chunk_Run: Running for in-PET grid #           1
 GIGC_Chunk_Run: Received new grid IM, JM, LM =          14           9
          49
 =================================================
 W R F - G C   T I M E R S
    Domain           1 (Units: s)
 =================================================
  => Coupler Component                       0.355
   -- Physics & Parameterization             0.096
   -- Diagnostics Out                        0.000
  => GEOS-Chem Column                      148.366
  ===> Total Chemistry                     148.721
  => WRF                                   221.890
  ===> Total WRF-GC                        370.610
 max optd  4.5185168E+30
 max taucldi  1.4176528E-07
 max taucldw  1.0367125E-05
 Switching is not necessary as we are already
 in the right domain!
 GIGC_Chunk_Run: Running for in-PET grid #           1
 GIGC_Chunk_Run: Received new grid IM, JM, LM =          14           9
          49
 =================================================
 W R F - G C   T I M E R S
    Domain           1 (Units: s)
 =================================================
  => Coupler Component                       0.383
   -- Physics & Parameterization             0.105
   -- Diagnostics Out                        0.000
  => GEOS-Chem Column                      149.309
  ===> Total Chemistry                     149.692
  => WRF                                   240.262
  ===> Total WRF-GC                        389.953
 HOURLY EMISSIONS UPDATE TIME     3600.0       0.0
mediation_integrate: med_read_wrf_chem_emissions: Read emissions for time 2018-01-01_01:00:00
 max optd  4.5185168E+30
 max taucldi  1.5204033E-07
 max taucldw  1.0296282E-05
 Switching is not necessary as we are already
 in the right domain!
 GIGC_Chunk_Run: Running for in-PET grid #           1
 GIGC_Chunk_Run: Received new grid IM, JM, LM =          14           9
          49
 =================================================
 W R F - G C   T I M E R S
    Domain           1 (Units: s)
 =================================================
  => Coupler Component                       0.413
   -- Physics & Parameterization             0.114
   -- Diagnostics Out                        0.000
  => GEOS-Chem Column                      150.240
  ===> Total Chemistry                     150.653
  => WRF                                   258.696
  ===> Total WRF-GC                        409.349
 max optd  4.5185168E+30
 max taucldi  4.2829404E-07
 max taucldw  1.0352328E-05
 Switching is not necessary as we are already
 in the right domain!
 GIGC_Chunk_Run: Running for in-PET grid #           1
 GIGC_Chunk_Run: Received new grid IM, JM, LM =          14           9
          49
 =================================================
 W R F - G C   T I M E R S
    Domain           1 (Units: s)
 =================================================
  => Coupler Component                       0.443
   -- Physics & Parameterization             0.123
   -- Diagnostics Out                        0.000
  => GEOS-Chem Column                      151.172
  ===> Total Chemistry                     151.615
  => WRF                                   277.133
  ===> Total WRF-GC                        428.748
 max optd  4.5185168E+30
 max taucldi  4.4970546E-04
 max taucldw  9.9308390E-06
 Switching is not necessary as we are already
 in the right domain!
 GIGC_Chunk_Run: Running for in-PET grid #           1
 GIGC_Chunk_Run: Received new grid IM, JM, LM =          14           9
          49
 =================================================
 W R F - G C   T I M E R S
    Domain           1 (Units: s)
 =================================================
  => Coupler Component                       0.474
   -- Physics & Parameterization             0.131
   -- Diagnostics Out                        0.000
  => GEOS-Chem Column                      152.115
  ===> Total Chemistry                     152.588
  => WRF                                   295.465
  ===> Total WRF-GC                        448.053
 max optd  4.5185168E+30
 max taucldi  8.9132696E-02
 max taucldw  1.0308254E-05
 Switching is not necessary as we are already
 in the right domain!
 GIGC_Chunk_Run: Running for in-PET grid #           1
 GIGC_Chunk_Run: Received new grid IM, JM, LM =          14           9
          49
 =================================================
 W R F - G C   T I M E R S
    Domain           1 (Units: s)
 =================================================
  => Coupler Component                       0.502
   -- Physics & Parameterization             0.140
   -- Diagnostics Out                        0.000
  => GEOS-Chem Column                      153.045
  ===> Total Chemistry                     153.547
  => WRF                                   313.849
  ===> Total WRF-GC                        467.396
 max optd  4.5185168E+30
 max taucldi  9.9618763E-02
 max taucldw  1.0688568E-05
 Switching is not necessary as we are already
 in the right domain!
 GIGC_Chunk_Run: Running for in-PET grid #           1
 GIGC_Chunk_Run: Received new grid IM, JM, LM =          14           9
          49
 =================================================
 W R F - G C   T I M E R S
    Domain           1 (Units: s)
 =================================================
  => Coupler Component                       0.533
   -- Physics & Parameterization             0.148
   -- Diagnostics Out                        0.000
  => GEOS-Chem Column                      153.977
  ===> Total Chemistry                     154.510
  => WRF                                   332.211
  ===> Total WRF-GC                        486.721
 max optd  4.5185168E+30
 max taucldi  0.1089132    
 max taucldw  1.1105647E-05
 Switching is not necessary as we are already
 in the right domain!
 GIGC_Chunk_Run: Running for in-PET grid #           1
 GIGC_Chunk_Run: Received new grid IM, JM, LM =          14           9
          49
 =================================================
 W R F - G C   T I M E R S
    Domain           1 (Units: s)
 =================================================
  => Coupler Component                       0.562
   -- Physics & Parameterization             0.157
   -- Diagnostics Out                        0.000
  => GEOS-Chem Column                      154.906
  ===> Total Chemistry                     155.468
  => WRF                                   350.539
  ===> Total WRF-GC                        506.007
 max optd  4.5185168E+30
 max taucldi  0.1202575    
 max taucldw  1.1532825E-05
 Switching is not necessary as we are already
 in the right domain!
 GIGC_Chunk_Run: Running for in-PET grid #           1
 GIGC_Chunk_Run: Received new grid IM, JM, LM =          14           9
          49
 =================================================
 W R F - G C   T I M E R S
    Domain           1 (Units: s)
 =================================================
  => Coupler Component                       0.590
   -- Physics & Parameterization             0.166
   -- Diagnostics Out                        0.000
  => GEOS-Chem Column                      155.829
  ===> Total Chemistry                     156.419
  => WRF                                   368.925
  ===> Total WRF-GC                        525.344
 max optd  4.5185168E+30
 max taucldi  0.1129772    
 max taucldw  1.1970816E-05
 Switching is not necessary as we are already
 in the right domain!
 GIGC_Chunk_Run: Running for in-PET grid #           1
 GIGC_Chunk_Run: Received new grid IM, JM, LM =          14           9
          49
 =================================================
 W R F - G C   T I M E R S
    Domain           1 (Units: s)
 =================================================
  => Coupler Component                       0.619
   -- Physics & Parameterization             0.175
   -- Diagnostics Out                        0.000
  => GEOS-Chem Column                      156.772
  ===> Total Chemistry                     157.391
  => WRF                                   387.419
  ===> Total WRF-GC                        544.810
 max optd  4.5185168E+30
 max taucldi  9.9090792E-02
 max taucldw  1.2450962E-05
 Switching is not necessary as we are already
 in the right domain!
 GIGC_Chunk_Run: Running for in-PET grid #           1
 GIGC_Chunk_Run: Received new grid IM, JM, LM =          14           9
          49
 =================================================
 W R F - G C   T I M E R S
    Domain           1 (Units: s)
 =================================================
  => Coupler Component                       0.648
   -- Physics & Parameterization             0.183
   -- Diagnostics Out                        0.000
  => GEOS-Chem Column                      157.712
  ===> Total Chemistry                     158.360
  => WRF                                   405.648
  ===> Total WRF-GC                        564.008
 max optd  4.5185168E+30
 max taucldi  8.5358068E-02
 max taucldw  1.2881104E-05
 Switching is not necessary as we are already
 in the right domain!
 GIGC_Chunk_Run: Running for in-PET grid #           1
 GIGC_Chunk_Run: Received new grid IM, JM, LM =          14           9
          49
 =================================================
 W R F - G C   T I M E R S
    Domain           1 (Units: s)
 =================================================
  => Coupler Component                       0.677
   -- Physics & Parameterization             0.192
   -- Diagnostics Out                        0.000
  => GEOS-Chem Column                      158.644
  ===> Total Chemistry                     159.321
  => WRF                                   423.938
  ===> Total WRF-GC                        583.258
 max optd  4.5185168E+30
 max taucldi  7.0350491E-02
 max taucldw  1.3358835E-05
 Switching is not necessary as we are already
 in the right domain!
 GIGC_Chunk_Run: Running for in-PET grid #           1
 GIGC_Chunk_Run: Received new grid IM, JM, LM =          14           9
          49
 =================================================
 W R F - G C   T I M E R S
    Domain           1 (Units: s)
 =================================================
  => Coupler Component                       0.709
   -- Physics & Parameterization             0.201
   -- Diagnostics Out                        0.000
  => GEOS-Chem Column                      159.578
  ===> Total Chemistry                     160.287
  => WRF                                   442.357
  ===> Total WRF-GC                        602.644
 max optd  4.5185168E+30
 max taucldi  5.0589751E-02
 max taucldw  1.3910286E-05
 Switching is not necessary as we are already
 in the right domain!
 GIGC_Chunk_Run: Running for in-PET grid #           1
 GIGC_Chunk_Run: Received new grid IM, JM, LM =          14           9
          49
 =================================================
 W R F - G C   T I M E R S
    Domain           1 (Units: s)
 =================================================
  => Coupler Component                       0.738
   -- Physics & Parameterization             0.210
   -- Diagnostics Out                        0.000
  => GEOS-Chem Column                      160.519
  ===> Total Chemistry                     161.257
  => WRF                                   460.669
  ===> Total WRF-GC                        621.925
 HOURLY EMISSIONS UPDATE TIME     7200.0       0.0
mediation_integrate: med_read_wrf_chem_emissions: Read emissions for time 2018-01-01_02:00:00
 max optd  4.5185168E+30
 max taucldi  3.2465283E-02
 max taucldw  1.4472980E-05
 Switching is not necessary as we are already
 in the right domain!
 GIGC_Chunk_Run: Running for in-PET grid #           1
 GIGC_Chunk_Run: Received new grid IM, JM, LM =          14           9
          49
 =================================================
 W R F - G C   T I M E R S
    Domain           1 (Units: s)
 =================================================
  => Coupler Component                       0.768
   -- Physics & Parameterization             0.218
   -- Diagnostics Out                        0.000
  => GEOS-Chem Column                      161.444
  ===> Total Chemistry                     162.212
  => WRF                                   478.987
  ===> Total WRF-GC                        641.200
 max optd  4.5185168E+30
 max taucldi  9.5028505E-03
 max taucldw  1.4990640E-05
 Switching is not necessary as we are already
 in the right domain!
 GIGC_Chunk_Run: Running for in-PET grid #           1
 GIGC_Chunk_Run: Received new grid IM, JM, LM =          14           9
          49
 =================================================
 W R F - G C   T I M E R S
    Domain           1 (Units: s)
 =================================================
  => Coupler Component                       0.803
   -- Physics & Parameterization             0.227
   -- Diagnostics Out                        0.000
  => GEOS-Chem Column                      162.388
  ===> Total Chemistry                     163.191
  => WRF                                   497.355
  ===> Total WRF-GC                        660.546
 max optd  4.5185168E+30
 max taucldi  8.4773917E-04
 max taucldw  1.5481652E-05
 Switching is not necessary as we are already
 in the right domain!
 GIGC_Chunk_Run: Running for in-PET grid #           1
 GIGC_Chunk_Run: Received new grid IM, JM, LM =          14           9
          49
 =================================================
 W R F - G C   T I M E R S
    Domain           1 (Units: s)
 =================================================
  => Coupler Component                       0.833
   -- Physics & Parameterization             0.236
   -- Diagnostics Out                        0.000
  => GEOS-Chem Column                      163.332
  ===> Total Chemistry                     164.164
  => WRF                                   515.585
  ===> Total WRF-GC                        679.749
 max optd  4.5185168E+30
 max taucldi  1.0457666E-05
 max taucldw  1.5872665E-05
 Switching is not necessary as we are already
 in the right domain!
 GIGC_Chunk_Run: Running for in-PET grid #           1
 GIGC_Chunk_Run: Received new grid IM, JM, LM =          14           9
          49
 =================================================
 W R F - G C   T I M E R S
    Domain           1 (Units: s)
 =================================================
  => Coupler Component                       0.868
   -- Physics & Parameterization             0.245
   -- Diagnostics Out                        0.000
  => GEOS-Chem Column                      164.244
  ===> Total Chemistry                     165.112
  => WRF                                   533.793
  ===> Total WRF-GC                        698.905
 max optd  4.5185168E+30
 max taucldi  1.1074520E-05
 max taucldw  1.6303838E-05
 Switching is not necessary as we are already
 in the right domain!
 GIGC_Chunk_Run: Running for in-PET grid #           1
 GIGC_Chunk_Run: Received new grid IM, JM, LM =          14           9
          49
 =================================================
 W R F - G C   T I M E R S
    Domain           1 (Units: s)
 =================================================
  => Coupler Component                       0.895
   -- Physics & Parameterization             0.253
   -- Diagnostics Out                        0.000
  => GEOS-Chem Column                      165.189
  ===> Total Chemistry                     166.084
  => WRF                                   552.098
  ===> Total WRF-GC                        718.182
 max optd  4.5185168E+30
 max taucldi  1.3555810E-05
 max taucldw  1.6783117E-05
 Switching is not necessary as we are already
 in the right domain!
 GIGC_Chunk_Run: Running for in-PET grid #           1
 GIGC_Chunk_Run: Received new grid IM, JM, LM =          14           9
          49
 =================================================
 W R F - G C   T I M E R S
    Domain           1 (Units: s)
 =================================================
  => Coupler Component                       0.924
   -- Physics & Parameterization             0.262
   -- Diagnostics Out                        0.000
  => GEOS-Chem Column                      166.125
  ===> Total Chemistry                     167.049
  => WRF                                   570.348
  ===> Total WRF-GC                        737.397
 max optd  4.5185168E+30
 max taucldi  3.6844136E-05
 max taucldw  1.7255099E-05
 Switching is not necessary as we are already
 in the right domain!
 GIGC_Chunk_Run: Running for in-PET grid #           1
 GIGC_Chunk_Run: Received new grid IM, JM, LM =          14           9
          49
 =================================================
 W R F - G C   T I M E R S
    Domain           1 (Units: s)
 =================================================
  => Coupler Component                       0.954
   -- Physics & Parameterization             0.271
   -- Diagnostics Out                        0.000
  => GEOS-Chem Column                      167.067
  ===> Total Chemistry                     168.021
  => WRF                                   588.626
  ===> Total WRF-GC                        756.647
 max optd  4.5185168E+30
 max taucldi  2.0135021E-05
 max taucldw  1.7789289E-05
 Switching is not necessary as we are already
 in the right domain!
 GIGC_Chunk_Run: Running for in-PET grid #           1
 GIGC_Chunk_Run: Received new grid IM, JM, LM =          14           9
          49
 =================================================
 W R F - G C   T I M E R S
    Domain           1 (Units: s)
 =================================================
  => Coupler Component                       0.983
   -- Physics & Parameterization             0.280
   -- Diagnostics Out                        0.000
  => GEOS-Chem Column                      167.996
  ===> Total Chemistry                     168.978
  => WRF                                   606.828
  ===> Total WRF-GC                        775.806
 max optd  4.5185168E+30
 max taucldi  2.1253245E-05
 max taucldw  1.8818821E-05
 Switching is not necessary as we are already
 in the right domain!
 GIGC_Chunk_Run: Running for in-PET grid #           1
 GIGC_Chunk_Run: Received new grid IM, JM, LM =          14           9
          49
 =================================================
 W R F - G C   T I M E R S
    Domain           1 (Units: s)
 =================================================
  => Coupler Component                       1.011
   -- Physics & Parameterization             0.288
   -- Diagnostics Out                        0.000
  => GEOS-Chem Column                      168.938
  ===> Total Chemistry                     169.949
  => WRF                                   625.070
  ===> Total WRF-GC                        795.019
 max optd  4.5185168E+30
 max taucldi  1.6176955E-05
 max taucldw  2.0084140E-05
 Switching is not necessary as we are already
 in the right domain!
 GIGC_Chunk_Run: Running for in-PET grid #           1
 GIGC_Chunk_Run: Received new grid IM, JM, LM =          14           9
          49
 =================================================
 W R F - G C   T I M E R S
    Domain           1 (Units: s)
 =================================================
  => Coupler Component                       1.039
   -- Physics & Parameterization             0.296
   -- Diagnostics Out                        0.000
  => GEOS-Chem Column                      169.872
  ===> Total Chemistry                     170.910
  => WRF                                   643.338
  ===> Total WRF-GC                        814.248
 max optd  4.5185168E+30
 max taucldi  1.3017301E-05
 max taucldw  2.1541813E-05
 Switching is not necessary as we are already
 in the right domain!
 GIGC_Chunk_Run: Running for in-PET grid #           1
 GIGC_Chunk_Run: Received new grid IM, JM, LM =          14           9
          49
 =================================================
 W R F - G C   T I M E R S
    Domain           1 (Units: s)
 =================================================
  => Coupler Component                       1.066
   -- Physics & Parameterization             0.305
   -- Diagnostics Out                        0.000
  => GEOS-Chem Column                      170.821
  ===> Total Chemistry                     171.887
  => WRF                                   661.534
  ===> Total WRF-GC                        833.421
 max optd  4.5185168E+30
 max taucldi  8.9526502E-06
 max taucldw  2.3175542E-05
 Switching is not necessary as we are already
 in the right domain!
 GIGC_Chunk_Run: Running for in-PET grid #           1
 GIGC_Chunk_Run: Received new grid IM, JM, LM =          14           9
          49
 =================================================
 W R F - G C   T I M E R S
    Domain           1 (Units: s)
 =================================================
  => Coupler Component                       1.100
   -- Physics & Parameterization             0.314
   -- Diagnostics Out                        0.000
  => GEOS-Chem Column                      171.745
  ===> Total Chemistry                     172.845
  => WRF                                   679.699
  ===> Total WRF-GC                        852.544
 HOURLY EMISSIONS UPDATE TIME    10800.0       0.0
mediation_integrate: med_read_wrf_chem_emissions: Read emissions for time 2018-01-01_03:00:00
 max optd  4.5185168E+30
 max taucldi  5.9499876E-06
 max taucldw  2.4921341E-05
 Switching is not necessary as we are already
 in the right domain!
 GIGC_Chunk_Run: Running for in-PET grid #           1
 GIGC_Chunk_Run: Received new grid IM, JM, LM =          14           9
          49
 =================================================
 W R F - G C   T I M E R S
    Domain           1 (Units: s)
 =================================================
  => Coupler Component                       1.128
   -- Physics & Parameterization             0.323
   -- Diagnostics Out                        0.000
  => GEOS-Chem Column                      172.688
  ===> Total Chemistry                     173.816
  => WRF                                   697.991
  ===> Total WRF-GC                        871.807
 max optd  4.5185168E+30
 max taucldi  1.2228195E-05
 max taucldw  2.6700607E-05
 Switching is not necessary as we are already
 in the right domain!
 GIGC_Chunk_Run: Running for in-PET grid #           1
 GIGC_Chunk_Run: Received new grid IM, JM, LM =          14           9
          49
 =================================================
 W R F - G C   T I M E R S
    Domain           1 (Units: s)
 =================================================
  => Coupler Component                       1.158
   -- Physics & Parameterization             0.331
   -- Diagnostics Out                        0.000
  => GEOS-Chem Column                      173.634
  ===> Total Chemistry                     174.792
  => WRF                                   716.195
  ===> Total WRF-GC                        890.986
 max optd  4.5185168E+30
 max taucldi  8.7931194E-06
 max taucldw  2.8396000E-05
 Switching is not necessary as we are already
 in the right domain!
 GIGC_Chunk_Run: Running for in-PET grid #           1
 GIGC_Chunk_Run: Received new grid IM, JM, LM =          14           9
          49
 =================================================
 W R F - G C   T I M E R S
    Domain           1 (Units: s)
 =================================================
  => Coupler Component                       1.186
   -- Physics & Parameterization             0.340
   -- Diagnostics Out                        0.000
  => GEOS-Chem Column                      174.570
  ===> Total Chemistry                     175.757
  => WRF                                   734.422
  ===> Total WRF-GC                        910.179
 max optd  4.5185168E+30
 max taucldi  2.8109894E-06
 max taucldw  2.9935611E-05
 Switching is not necessary as we are already
 in the right domain!
 GIGC_Chunk_Run: Running for in-PET grid #           1
 GIGC_Chunk_Run: Received new grid IM, JM, LM =          14           9
          49
 =================================================
 W R F - G C   T I M E R S
    Domain           1 (Units: s)
 =================================================
  => Coupler Component                       1.215
   -- Physics & Parameterization             0.349
   -- Diagnostics Out                        0.000
  => GEOS-Chem Column                      175.506
  ===> Total Chemistry                     176.721
  => WRF                                   752.632
  ===> Total WRF-GC                        929.353
 max optd  4.5185168E+30
 max taucldi  3.4063371E-06
 max taucldw  3.2306438E-05
 Switching is not necessary as we are already
 in the right domain!
 GIGC_Chunk_Run: Running for in-PET grid #           1
 GIGC_Chunk_Run: Received new grid IM, JM, LM =          14           9
          49
 =================================================
 W R F - G C   T I M E R S
    Domain           1 (Units: s)
 =================================================
  => Coupler Component                       1.243
   -- Physics & Parameterization             0.358
   -- Diagnostics Out                        0.000
  => GEOS-Chem Column                      176.447
  ===> Total Chemistry                     177.690
  => WRF                                   770.823
  ===> Total WRF-GC                        948.513
 max optd  4.5185168E+30
 max taucldi  4.3106129E-06
 max taucldw  3.7450427E-05
 Switching is not necessary as we are already
 in the right domain!
 GIGC_Chunk_Run: Running for in-PET grid #           1
 GIGC_Chunk_Run: Received new grid IM, JM, LM =          14           9
          49
 =================================================
 W R F - G C   T I M E R S
    Domain           1 (Units: s)
 =================================================
  => Coupler Component                       1.271
   -- Physics & Parameterization             0.367
   -- Diagnostics Out                        0.000
  => GEOS-Chem Column                      177.381
  ===> Total Chemistry                     178.652
  => WRF                                   789.299
  ===> Total WRF-GC                        967.951
 max optd  4.5185168E+30
 max taucldi  5.4296906E-06
 max taucldw  4.4657281E-05
 Switching is not necessary as we are already
 in the right domain!
 GIGC_Chunk_Run: Running for in-PET grid #           1
 GIGC_Chunk_Run: Received new grid IM, JM, LM =          14           9
          49
 =================================================
 W R F - G C   T I M E R S
    Domain           1 (Units: s)
 =================================================
  => Coupler Component                       1.302
   -- Physics & Parameterization             0.376
   -- Diagnostics Out                        0.000
  => GEOS-Chem Column                      178.311
  ===> Total Chemistry                     179.614
  => WRF                                   807.586
  ===> Total WRF-GC                        987.200
 max optd  4.5185168E+30
 max taucldi  6.7367291E-06
 max taucldw  5.2925301E-05
 Switching is not necessary as we are already
 in the right domain!
 GIGC_Chunk_Run: Running for in-PET grid #           1
 GIGC_Chunk_Run: Received new grid IM, JM, LM =          14           9
          49
 =================================================
 W R F - G C   T I M E R S
    Domain           1 (Units: s)
 =================================================
  => Coupler Component                       1.331
   -- Physics & Parameterization             0.385
   -- Diagnostics Out                        0.000
  => GEOS-Chem Column                      179.253
  ===> Total Chemistry                     180.583
  => WRF                                   825.758
  ===> Total WRF-GC                       1006.341
 max optd  4.5185168E+30
 max taucldi  8.1986918E-06
 max taucldw  6.2023290E-05
 Switching is not necessary as we are already
 in the right domain!
 GIGC_Chunk_Run: Running for in-PET grid #           1
 GIGC_Chunk_Run: Received new grid IM, JM, LM =          14           9
          49
 =================================================
 W R F - G C   T I M E R S
    Domain           1 (Units: s)
 =================================================
  => Coupler Component                       1.360
   -- Physics & Parameterization             0.393
   -- Diagnostics Out                        0.000
  => GEOS-Chem Column                      180.185
  ===> Total Chemistry                     181.545
  => WRF                                   844.103
  ===> Total WRF-GC                       1025.649
 max optd  4.5185168E+30
 max taucldi  9.7871543E-06
 max taucldw  7.1754970E-05
 Switching is not necessary as we are already
 in the right domain!
 GIGC_Chunk_Run: Running for in-PET grid #           1
 GIGC_Chunk_Run: Received new grid IM, JM, LM =          14           9
          49
 =================================================
 W R F - G C   T I M E R S
    Domain           1 (Units: s)
 =================================================
  => Coupler Component                       1.388
   -- Physics & Parameterization             0.402
   -- Diagnostics Out                        0.000
  => GEOS-Chem Column                      181.125
  ===> Total Chemistry                     182.513
  => WRF                                   862.376
  ===> Total WRF-GC                       1044.889
 max optd  4.5185168E+30
 max taucldi  1.1500170E-05
 max taucldw  8.2074403E-05
 Switching is not necessary as we are already
 in the right domain!
 GIGC_Chunk_Run: Running for in-PET grid #           1
 GIGC_Chunk_Run: Received new grid IM, JM, LM =          14           9
          49
 =================================================
 W R F - G C   T I M E R S
    Domain           1 (Units: s)
 =================================================
  => Coupler Component                       1.417
   -- Physics & Parameterization             0.410
   -- Diagnostics Out                        0.000
  => GEOS-Chem Column                      182.055
  ===> Total Chemistry                     183.472
  => WRF                                   880.593
  ===> Total WRF-GC                       1064.065
 max optd  4.5185168E+30
 max taucldi  1.3326236E-05
 max taucldw  9.2874834E-05
 Switching is not necessary as we are already
 in the right domain!
 GIGC_Chunk_Run: Running for in-PET grid #           1
 GIGC_Chunk_Run: Received new grid IM, JM, LM =          14           9
          49
 =================================================
 W R F - G C   T I M E R S
    Domain           1 (Units: s)
 =================================================
  => Coupler Component                       1.449
   -- Physics & Parameterization             0.419
   -- Diagnostics Out                        0.000
  => GEOS-Chem Column                      182.999
  ===> Total Chemistry                     184.449
  => WRF                                   898.875
  ===> Total WRF-GC                       1083.324
 HOURLY EMISSIONS UPDATE TIME    14400.0       0.0
mediation_integrate: med_read_wrf_chem_emissions: Read emissions for time 2018-01-01_04:00:00
 max optd  4.5185168E+30
 max taucldi  1.5303020E-05
 max taucldw  1.0404982E-04
 Switching is not necessary as we are already
 in the right domain!
 GIGC_Chunk_Run: Running for in-PET grid #           1
 GIGC_Chunk_Run: Received new grid IM, JM, LM =          14           9
          49
 =================================================
 W R F - G C   T I M E R S
    Domain           1 (Units: s)
 =================================================
  => Coupler Component                       1.478
   -- Physics & Parameterization             0.428
   -- Diagnostics Out                        0.000
  => GEOS-Chem Column                      183.939
  ===> Total Chemistry                     185.417
  => WRF                                   917.133
  ===> Total WRF-GC                       1102.551
 max optd  4.5185168E+30
 max taucldi  1.7362727E-05
 max taucldw  1.1547634E-04
 Switching is not necessary as we are already
 in the right domain!
 GIGC_Chunk_Run: Running for in-PET grid #           1
 GIGC_Chunk_Run: Received new grid IM, JM, LM =          14           9
          49
 =================================================
 W R F - G C   T I M E R S
    Domain           1 (Units: s)
 =================================================
  => Coupler Component                       1.508
   -- Physics & Parameterization             0.437
   -- Diagnostics Out                        0.000
  => GEOS-Chem Column                      184.876
  ===> Total Chemistry                     186.384
  => WRF                                   935.385
  ===> Total WRF-GC                       1121.769
 max optd  4.5185168E+30
 max taucldi  1.9425112E-05
 max taucldw  1.2690625E-04
 Switching is not necessary as we are already
 in the right domain!
 GIGC_Chunk_Run: Running for in-PET grid #           1
 GIGC_Chunk_Run: Received new grid IM, JM, LM =          14           9
          49
 =================================================
 W R F - G C   T I M E R S
    Domain           1 (Units: s)
 =================================================
  => Coupler Component                       1.539
   -- Physics & Parameterization             0.445
   -- Diagnostics Out                        0.000
  => GEOS-Chem Column                      185.821
  ===> Total Chemistry                     187.360
  => WRF                                   953.746
  ===> Total WRF-GC                       1141.105
 max optd  4.5185168E+30
 max taucldi  2.1392685E-05
 max taucldw  1.3785860E-04
 Switching is not necessary as we are already
 in the right domain!
 GIGC_Chunk_Run: Running for in-PET grid #           1
 GIGC_Chunk_Run: Received new grid IM, JM, LM =          14           9
          49
 =================================================
 W R F - G C   T I M E R S
    Domain           1 (Units: s)
 =================================================
  => Coupler Component                       1.567
   -- Physics & Parameterization             0.454
   -- Diagnostics Out                        0.000
  => GEOS-Chem Column                      186.764
  ===> Total Chemistry                     188.331
  => WRF                                   971.975
  ===> Total WRF-GC                       1160.306
 max optd  4.5185168E+30
 max taucldi  2.3136596E-05
 max taucldw  1.4765943E-04
 Switching is not necessary as we are already
 in the right domain!
 GIGC_Chunk_Run: Running for in-PET grid #           1
 GIGC_Chunk_Run: Received new grid IM, JM, LM =          14           9
          49
 =================================================
 W R F - G C   T I M E R S
    Domain           1 (Units: s)
 =================================================
  => Coupler Component                       1.594
   -- Physics & Parameterization             0.463
   -- Diagnostics Out                        0.000
  => GEOS-Chem Column                      187.709
  ===> Total Chemistry                     189.303
  => WRF                                   990.255
  ===> Total WRF-GC                       1179.558
 max optd  4.5185168E+30
 max taucldi  2.4519954E-05
 max taucldw  1.5555634E-04
 Switching is not necessary as we are already
 in the right domain!
 GIGC_Chunk_Run: Running for in-PET grid #           1
 GIGC_Chunk_Run: Received new grid IM, JM, LM =          14           9
          49
 =================================================
 W R F - G C   T I M E R S
    Domain           1 (Units: s)
 =================================================
  => Coupler Component                       1.625
   -- Physics & Parameterization             0.472
   -- Diagnostics Out                        0.000
  => GEOS-Chem Column                      188.642
  ===> Total Chemistry                     190.267
  => WRF                                  1008.516
  ===> Total WRF-GC                       1198.783
 max optd  4.5185168E+30
 max taucldi  2.5441077E-05
 max taucldw  1.6139919E-04
 Switching is not necessary as we are already
 in the right domain!
 GIGC_Chunk_Run: Running for in-PET grid #           1
 GIGC_Chunk_Run: Received new grid IM, JM, LM =          14           9
          49
 =================================================
 W R F - G C   T I M E R S
    Domain           1 (Units: s)
 =================================================
  => Coupler Component                       1.653
   -- Physics & Parameterization             0.481
   -- Diagnostics Out                        0.000
  => GEOS-Chem Column                      189.586
  ===> Total Chemistry                     191.239
  => WRF                                  1026.826
  ===> Total WRF-GC                       1218.065
 max optd  4.5185168E+30
 max taucldi  2.5884785E-05
 max taucldw  1.6469636E-04
 Switching is not necessary as we are already
 in the right domain!
 GIGC_Chunk_Run: Running for in-PET grid #           1
 GIGC_Chunk_Run: Received new grid IM, JM, LM =          14           9
          49
 =================================================
 W R F - G C   T I M E R S
    Domain           1 (Units: s)
 =================================================
  => Coupler Component                       1.681
   -- Physics & Parameterization             0.490
   -- Diagnostics Out                        0.000
  => GEOS-Chem Column                      190.515
  ===> Total Chemistry                     192.196
  => WRF                                  1045.051
  ===> Total WRF-GC                       1237.247
 max optd  4.5185168E+30
 max taucldi  2.6481335E-05
 max taucldw  1.6568112E-04
 Switching is not necessary as we are already
 in the right domain!
 GIGC_Chunk_Run: Running for in-PET grid #           1
 GIGC_Chunk_Run: Received new grid IM, JM, LM =          14           9
          49
 =================================================
 W R F - G C   T I M E R S
    Domain           1 (Units: s)
 =================================================
  => Coupler Component                       1.711
   -- Physics & Parameterization             0.499
   -- Diagnostics Out                        0.000
  => GEOS-Chem Column                      191.451
  ===> Total Chemistry                     193.162
  => WRF                                  1063.336
  ===> Total WRF-GC                       1256.498
 max optd  4.5185168E+30
 max taucldi  2.6918895E-05
 max taucldw  1.6495686E-04
 Switching is not necessary as we are already
 in the right domain!
 GIGC_Chunk_Run: Running for in-PET grid #           1
 GIGC_Chunk_Run: Received new grid IM, JM, LM =          14           9
          49
 =================================================
 W R F - G C   T I M E R S
    Domain           1 (Units: s)
 =================================================
  => Coupler Component                       1.739
   -- Physics & Parameterization             0.507
   -- Diagnostics Out                        0.000
  => GEOS-Chem Column                      192.394
  ===> Total Chemistry                     194.133
  => WRF                                  1081.589
  ===> Total WRF-GC                       1275.722
 max optd  4.5185168E+30
 max taucldi  2.7038468E-05
 max taucldw  1.6578558E-04
 Switching is not necessary as we are already
 in the right domain!
 GIGC_Chunk_Run: Running for in-PET grid #           1
 GIGC_Chunk_Run: Received new grid IM, JM, LM =          14           9
          49
 =================================================
 W R F - G C   T I M E R S
    Domain           1 (Units: s)
 =================================================
  => Coupler Component                       1.767
   -- Physics & Parameterization             0.516
   -- Diagnostics Out                        0.000
  => GEOS-Chem Column                      193.328
  ===> Total Chemistry                     195.095
  => WRF                                  1099.796
  ===> Total WRF-GC                       1294.891
 max optd  4.5185168E+30
 max taucldi  2.6834672E-05
 max taucldw  1.6523893E-04
 Switching is not necessary as we are already
 in the right domain!
 GIGC_Chunk_Run: Running for in-PET grid #           1
 GIGC_Chunk_Run: Received new grid IM, JM, LM =          14           9
          49
 =================================================
 W R F - G C   T I M E R S
    Domain           1 (Units: s)
 =================================================
  => Coupler Component                       1.798
   -- Physics & Parameterization             0.525
   -- Diagnostics Out                        0.000
  => GEOS-Chem Column                      194.264
  ===> Total Chemistry                     196.062
  => WRF                                  1117.992
  ===> Total WRF-GC                       1314.054
 HOURLY EMISSIONS UPDATE TIME    18000.0       0.0
mediation_integrate: med_read_wrf_chem_emissions: Read emissions for time 2018-01-01_05:00:00
 max optd  4.5185168E+30
 max taucldi  2.6451751E-05
 max taucldw  1.6368674E-04
 Switching is not necessary as we are already
 in the right domain!
 GIGC_Chunk_Run: Running for in-PET grid #           1
 GIGC_Chunk_Run: Received new grid IM, JM, LM =          14           9
          49
 =================================================
 W R F - G C   T I M E R S
    Domain           1 (Units: s)
 =================================================
  => Coupler Component                       1.826
   -- Physics & Parameterization             0.533
   -- Diagnostics Out                        0.000
  => GEOS-Chem Column                      195.206
  ===> Total Chemistry                     197.032
  => WRF                                  1136.288
  ===> Total WRF-GC                       1333.321
 max optd  4.5185168E+30
 max taucldi  2.6078993E-05
 max taucldw  1.6203802E-04
 Switching is not necessary as we are already
 in the right domain!
 GIGC_Chunk_Run: Running for in-PET grid #           1
 GIGC_Chunk_Run: Received new grid IM, JM, LM =          14           9
          49
 =================================================
 W R F - G C   T I M E R S
    Domain           1 (Units: s)
 =================================================
  => Coupler Component                       1.855
   -- Physics & Parameterization             0.542
   -- Diagnostics Out                        0.000
  => GEOS-Chem Column                      196.147
  ===> Total Chemistry                     198.002
  => WRF                                  1154.502
  ===> Total WRF-GC                       1352.504
 max optd  4.5185168E+30
 max taucldi  2.5890498E-05
 max taucldw  1.6173514E-04
 Switching is not necessary as we are already
 in the right domain!
 GIGC_Chunk_Run: Running for in-PET grid #           1
 GIGC_Chunk_Run: Received new grid IM, JM, LM =          14           9
          49
 =================================================
 W R F - G C   T I M E R S
    Domain           1 (Units: s)
 =================================================
  => Coupler Component                       1.884
   -- Physics & Parameterization             0.551
   -- Diagnostics Out                        0.000
  => GEOS-Chem Column                      197.082
  ===> Total Chemistry                     198.966
  => WRF                                  1172.724
  ===> Total WRF-GC                       1371.690
 max optd  4.5185168E+30
 max taucldi  2.6008118E-05
 max taucldw  1.6574869E-04
 Switching is not necessary as we are already
 in the right domain!
 GIGC_Chunk_Run: Running for in-PET grid #           1
 GIGC_Chunk_Run: Received new grid IM, JM, LM =          14           9
          49
 =================================================
 W R F - G C   T I M E R S
    Domain           1 (Units: s)
 =================================================
  => Coupler Component                       1.914
   -- Physics & Parameterization             0.560
   -- Diagnostics Out                        0.000
  => GEOS-Chem Column                      198.015
  ===> Total Chemistry                     199.929
  => WRF                                  1190.996
  ===> Total WRF-GC                       1390.925
 max optd  4.5185168E+30
 max taucldi  2.7139751E-05
 max taucldw  1.7134116E-04
 Switching is not necessary as we are already
 in the right domain!
 GIGC_Chunk_Run: Running for in-PET grid #           1
 GIGC_Chunk_Run: Received new grid IM, JM, LM =          14           9
          49
 =================================================
 W R F - G C   T I M E R S
    Domain           1 (Units: s)
 =================================================
  => Coupler Component                       1.941
   -- Physics & Parameterization             0.568
   -- Diagnostics Out                        0.000
  => GEOS-Chem Column                      198.959
  ===> Total Chemistry                     200.900
  => WRF                                  1209.315
  ===> Total WRF-GC                       1410.215
 max optd  4.5185168E+30
 max taucldi  2.8506649E-05
 max taucldw  1.7804146E-04
 Switching is not necessary as we are already
 in the right domain!
 GIGC_Chunk_Run: Running for in-PET grid #           1
 GIGC_Chunk_Run: Received new grid IM, JM, LM =          14           9
          49
 =================================================
 W R F - G C   T I M E R S
    Domain           1 (Units: s)
 =================================================
  => Coupler Component                       1.970
   -- Physics & Parameterization             0.577
   -- Diagnostics Out                        0.000
  => GEOS-Chem Column                      199.895
  ===> Total Chemistry                     201.865
  => WRF                                  1227.518
  ===> Total WRF-GC                       1429.382
 max optd  4.5185168E+30
 max taucldi  2.9925619E-05
 max taucldw  1.8522801E-04
 Switching is not necessary as we are already
 in the right domain!
 GIGC_Chunk_Run: Running for in-PET grid #           1
 GIGC_Chunk_Run: Received new grid IM, JM, LM =          14           9
          49
 =================================================
 W R F - G C   T I M E R S
    Domain           1 (Units: s)
 =================================================
  => Coupler Component                       2.001
   -- Physics & Parameterization             0.586
   -- Diagnostics Out                        0.000
  => GEOS-Chem Column                      200.828
  ===> Total Chemistry                     202.829
  => WRF                                  1245.856
  ===> Total WRF-GC                       1448.685
 max optd  4.5185168E+30
 max taucldi  3.1286170E-05
 max taucldw  1.9226171E-04
 Switching is not necessary as we are already
 in the right domain!
 GIGC_Chunk_Run: Running for in-PET grid #           1
 GIGC_Chunk_Run: Received new grid IM, JM, LM =          14           9
          49
 =================================================
 W R F - G C   T I M E R S
    Domain           1 (Units: s)
 =================================================
  => Coupler Component                       2.028
   -- Physics & Parameterization             0.595
   -- Diagnostics Out                        0.000
  => GEOS-Chem Column                      201.770
  ===> Total Chemistry                     203.798
  => WRF                                  1264.084
  ===> Total WRF-GC                       1467.882
 max optd  4.5185168E+30
 max taucldi  3.2521191E-05
 max taucldw  1.9869923E-04
 Switching is not necessary as we are already
 in the right domain!
 GIGC_Chunk_Run: Running for in-PET grid #           1
 GIGC_Chunk_Run: Received new grid IM, JM, LM =          14           9
          49
 =================================================
 W R F - G C   T I M E R S
    Domain           1 (Units: s)
 =================================================
  => Coupler Component                       2.056
   -- Physics & Parameterization             0.604
   -- Diagnostics Out                        0.000
  => GEOS-Chem Column                      202.701
  ===> Total Chemistry                     204.758
  => WRF                                  1282.370
  ===> Total WRF-GC                       1487.128
 max optd  4.5185168E+30
 max taucldi  3.3598557E-05
 max taucldw  2.0432629E-04
 Switching is not necessary as we are already
 in the right domain!
 GIGC_Chunk_Run: Running for in-PET grid #           1
 GIGC_Chunk_Run: Received new grid IM, JM, LM =          14           9
          49
 =================================================
 W R F - G C   T I M E R S
    Domain           1 (Units: s)
 =================================================
  => Coupler Component                       2.085
   -- Physics & Parameterization             0.612
   -- Diagnostics Out                        0.000
  => GEOS-Chem Column                      203.642
  ===> Total Chemistry                     205.727
  => WRF                                  1300.910
  ===> Total WRF-GC                       1506.638
 max optd  4.5185168E+30
 max taucldi  3.4502631E-05
 max taucldw  2.0900882E-04
 Switching is not necessary as we are already
 in the right domain!
 GIGC_Chunk_Run: Running for in-PET grid #           1
 GIGC_Chunk_Run: Received new grid IM, JM, LM =          14           9
          49
 =================================================
 W R F - G C   T I M E R S
    Domain           1 (Units: s)
 =================================================
  => Coupler Component                       2.112
   -- Physics & Parameterization             0.621
   -- Diagnostics Out                        0.000
  => GEOS-Chem Column                      204.581
  ===> Total Chemistry                     206.694
  => WRF                                  1319.161
  ===> Total WRF-GC                       1525.854
 max optd  4.5185168E+30
 max taucldi  3.5292756E-05
 max taucldw  2.1278493E-04
 Switching is not necessary as we are already
 in the right domain!
 GIGC_Chunk_Run: Running for in-PET grid #           1
 GIGC_Chunk_Run: Received new grid IM, JM, LM =          14           9
          49
 =================================================
 W R F - G C   T I M E R S
    Domain           1 (Units: s)
 =================================================
  => Coupler Component                       2.139
   -- Physics & Parameterization             0.630
   -- Diagnostics Out                        0.000
  => GEOS-Chem Column                      205.520
  ===> Total Chemistry                     207.659
  => WRF                                  1337.411
  ===> Total WRF-GC                       1545.070
 HOURLY EMISSIONS UPDATE TIME    21600.0       0.0
mediation_integrate: med_read_wrf_chem_emissions: Read emissions for time 2018-01-01_06:00:00
 max optd  4.5185168E+30
 max taucldi  3.5965633E-05
 max taucldw  2.1579034E-04
 Switching is not necessary as we are already
 in the right domain!
 GIGC_Chunk_Run: Running for in-PET grid #           1
 GIGC_Chunk_Run: Received new grid IM, JM, LM =          14           9
          49
 =================================================
 W R F - G C   T I M E R S
    Domain           1 (Units: s)
 =================================================
  => Coupler Component                       2.169
   -- Physics & Parameterization             0.639
   -- Diagnostics Out                        0.000
  => GEOS-Chem Column                      206.463
  ===> Total Chemistry                     208.631
  => WRF                                  1796.223
  ===> Total WRF-GC                       2004.854
 max optd  4.5185168E+30
 max taucldi  3.6523874E-05
 max taucldw  2.1817608E-04
 Switching is not necessary as we are already
 in the right domain!
 GIGC_Chunk_Run: Running for in-PET grid #           1
 GIGC_Chunk_Run: Received new grid IM, JM, LM =          14           9
          49
 =================================================
 W R F - G C   T I M E R S
    Domain           1 (Units: s)
 =================================================
  => Coupler Component                       2.196
   -- Physics & Parameterization             0.648
   -- Diagnostics Out                        0.000
  => GEOS-Chem Column                      207.398
  ===> Total Chemistry                     209.594
  => WRF                                  1814.474
  ===> Total WRF-GC                       2024.069
 max optd  4.5185168E+30
 max taucldi  3.7005324E-05
 max taucldw  2.2006709E-04
 Switching is not necessary as we are already
 in the right domain!
 GIGC_Chunk_Run: Running for in-PET grid #           1
 GIGC_Chunk_Run: Received new grid IM, JM, LM =          14           9
          49
 =================================================
 W R F - G C   T I M E R S
    Domain           1 (Units: s)
 =================================================
  => Coupler Component                       2.224
   -- Physics & Parameterization             0.656
   -- Diagnostics Out                        0.000
  => GEOS-Chem Column                      208.332
  ===> Total Chemistry                     210.556
  => WRF                                  1832.885
  ===> Total WRF-GC                       2043.441
 max optd  4.5185168E+30
 max taucldi  3.7446403E-05
 max taucldw  2.2165933E-04
 Switching is not necessary as we are already
 in the right domain!
 GIGC_Chunk_Run: Running for in-PET grid #           1
 GIGC_Chunk_Run: Received new grid IM, JM, LM =          14           9
          49
 =================================================
 W R F - G C   T I M E R S
    Domain           1 (Units: s)
 =================================================
  => Coupler Component                       2.259
[...]
  => GEOS-Chem Column                      250.497
  ===> Total Chemistry                     254.034
  => WRF                                  2656.680
  ===> Total WRF-GC                       2910.714
 HOURLY EMISSIONS UPDATE TIME    36000.0       0.0
mediation_integrate: med_read_wrf_chem_emissions: Read emissions for time 2018-01-01_10:00:00
 max optd  4.5185168E+30
 max taucldi  1.2862050E-03
 max taucldw  2.9406973E-04
 Switching is not necessary as we are already
 in the right domain!
 GIGC_Chunk_Run: Running for in-PET grid #           1
 GIGC_Chunk_Run: Received new grid IM, JM, LM =          14           9
          49
 =================================================
 W R F - G C   T I M E R S
    Domain           1 (Units: s)
 =================================================
  => Coupler Component                       3.569
   -- Physics & Parameterization             1.071
   -- Diagnostics Out                        0.000
  => GEOS-Chem Column                      251.430
  ===> Total Chemistry                     254.999
  => WRF                                  2675.023
  ===> Total WRF-GC                       2930.022
 max optd  4.5185168E+30
 max taucldi  1.3087019E-03
 max taucldw  2.9363434E-04
 Switching is not necessary as we are already
 in the right domain!
 GIGC_Chunk_Run: Running for in-PET grid #           1
 GIGC_Chunk_Run: Received new grid IM, JM, LM =          14           9
          49
 =================================================
 W R F - G C   T I M E R S
    Domain           1 (Units: s)
 =================================================
  => Coupler Component                       3.598
   -- Physics & Parameterization             1.081
   -- Diagnostics Out                        0.000
  => GEOS-Chem Column                      252.371
  ===> Total Chemistry                     255.970
  => WRF                                  2693.310
  ===> Total WRF-GC                       2949.279
 max optd  4.5185168E+30
 max taucldi  1.3311628E-03
 max taucldw  2.9298404E-04
 Switching is not necessary as we are already
 in the right domain!
 GIGC_Chunk_Run: Running for in-PET grid #           1
 GIGC_Chunk_Run: Received new grid IM, JM, LM =          14           9
          49
 =================================================
 W R F - G C   T I M E R S
    Domain           1 (Units: s)
 =================================================
  => Coupler Component                       3.626
   -- Physics & Parameterization             1.089
   -- Diagnostics Out                        0.000
  => GEOS-Chem Column                      253.308
  ===> Total Chemistry                     256.934
  => WRF                                  2711.573
  ===> Total WRF-GC                       2968.507
 max optd  4.5185168E+30
 max taucldi  1.3569784E-03
 max taucldw  2.9217062E-04
 Switching is not necessary as we are already
 in the right domain!
 GIGC_Chunk_Run: Running for in-PET grid #           1
 GIGC_Chunk_Run: Received new grid IM, JM, LM =          14           9
          49
 =================================================
 W R F - G C   T I M E R S
    Domain           1 (Units: s)
 =================================================
  => Coupler Component                       3.655
   -- Physics & Parameterization             1.098
   -- Diagnostics Out                        0.000
  => GEOS-Chem Column                      254.247
  ===> Total Chemistry                     257.902
  => WRF                                  2729.946
  ===> Total WRF-GC                       2987.848
 max optd  4.5185168E+30
 max taucldi  1.3952422E-03
 max taucldw  2.9122224E-04
 Switching is not necessary as we are already
 in the right domain!
 GIGC_Chunk_Run: Running for in-PET grid #           1
 GIGC_Chunk_Run: Received new grid IM, JM, LM =          14           9
          49
 =================================================
 W R F - G C   T I M E R S
    Domain           1 (Units: s)
 =================================================
  => Coupler Component                       3.687
   -- Physics & Parameterization             1.107
   -- Diagnostics Out                        0.000
  => GEOS-Chem Column                      255.174
  ===> Total Chemistry                     258.861
  => WRF                                  2748.244
  ===> Total WRF-GC                       3007.105
 max optd  4.5185168E+30
 max taucldi  1.4503418E-03
 max taucldw  2.9018518E-04
 Switching is not necessary as we are already
 in the right domain!
 GIGC_Chunk_Run: Running for in-PET grid #           1
 GIGC_Chunk_Run: Received new grid IM, JM, LM =          14           9
          49
 =================================================
 W R F - G C   T I M E R S
    Domain           1 (Units: s)
 =================================================
  => Coupler Component                       3.720
   -- Physics & Parameterization             1.116
   -- Diagnostics Out                        0.000
  => GEOS-Chem Column                      256.093
  ===> Total Chemistry                     259.812
  => WRF                                  2766.472
  ===> Total WRF-GC                       3026.284
 max optd  4.5185168E+30
 max taucldi  1.5120544E-03
 max taucldw  2.8913075E-04
 Switching is not necessary as we are already
 in the right domain!
 GIGC_Chunk_Run: Running for in-PET grid #           1
 GIGC_Chunk_Run: Received new grid IM, JM, LM =          14           9
          49
 =================================================
 W R F - G C   T I M E R S
    Domain           1 (Units: s)
 =================================================
  => Coupler Component                       3.748
   -- Physics & Parameterization             1.125
   -- Diagnostics Out                        0.000
  => GEOS-Chem Column                      257.037
  ===> Total Chemistry                     260.785
  => WRF                                  2784.825
  ===> Total WRF-GC                       3045.610
 max optd  4.5185168E+30
 max taucldi  1.5669010E-03
 max taucldw  2.8810024E-04
 Switching is not necessary as we are already
 in the right domain!
 GIGC_Chunk_Run: Running for in-PET grid #           1
 GIGC_Chunk_Run: Received new grid IM, JM, LM =          14           9
          49
 =================================================
 W R F - G C   T I M E R S
    Domain           1 (Units: s)
 =================================================
  => Coupler Component                       3.778
   -- Physics & Parameterization             1.135
   -- Diagnostics Out                        0.000
  => GEOS-Chem Column                      257.969
  ===> Total Chemistry                     261.746
  => WRF                                  2803.092
  ===> Total WRF-GC                       3064.839
 max optd  4.5185168E+30
 max taucldi  1.6071936E-03
 max taucldw  2.8712107E-04
 Switching is not necessary as we are already
 in the right domain!
 GIGC_Chunk_Run: Running for in-PET grid #           1
 GIGC_Chunk_Run: Received new grid IM, JM, LM =          14           9
          49
 =================================================
 W R F - G C   T I M E R S
    Domain           1 (Units: s)
 =================================================
  => Coupler Component                       3.805
   -- Physics & Parameterization             1.144
   -- Diagnostics Out                        0.000
  => GEOS-Chem Column                      258.909
  ===> Total Chemistry                     262.715
  => WRF                                  2821.369
  ===> Total WRF-GC                       3084.083
 max optd  4.5185168E+30
 max taucldi  1.6315629E-03
 max taucldw  2.8618774E-04
 Switching is not necessary as we are already
 in the right domain!
 GIGC_Chunk_Run: Running for in-PET grid #           1
 GIGC_Chunk_Run: Received new grid IM, JM, LM =          14           9
          49
 =================================================
 W R F - G C   T I M E R S
    Domain           1 (Units: s)
 =================================================
  => Coupler Component                       3.833
   -- Physics & Parameterization             1.152
   -- Diagnostics Out                        0.000
  => GEOS-Chem Column                      259.848
  ===> Total Chemistry                     263.682
  => WRF                                  2839.712
  ===> Total WRF-GC                       3103.393
 max optd  4.5185168E+30
 max taucldi  1.6420701E-03
 max taucldw  2.8520986E-04
 Switching is not necessary as we are already
 in the right domain!
 GIGC_Chunk_Run: Running for in-PET grid #           1
 GIGC_Chunk_Run: Received new grid IM, JM, LM =          14           9
          49
 =================================================
 W R F - G C   T I M E R S
    Domain           1 (Units: s)
 =================================================
  => Coupler Component                       3.865
   -- Physics & Parameterization             1.161
   -- Diagnostics Out                        0.000
  => GEOS-Chem Column                      260.787
  ===> Total Chemistry                     264.652
  => WRF                                  2857.984
  ===> Total WRF-GC                       3122.636
 max optd  4.5185168E+30
 max taucldi  1.6394744E-03
 max taucldw  2.8420670E-04
 Switching is not necessary as we are already
 in the right domain!
 GIGC_Chunk_Run: Running for in-PET grid #           1
 GIGC_Chunk_Run: Received new grid IM, JM, LM =          14           9
          49
 =================================================
 W R F - G C   T I M E R S
    Domain           1 (Units: s)
 =================================================
  => Coupler Component                       3.893
   -- Physics & Parameterization             1.170
   -- Diagnostics Out                        0.000
  => GEOS-Chem Column                      261.734
  ===> Total Chemistry                     265.627
  => WRF                                  2876.318
  ===> Total WRF-GC                       3141.946
 HOURLY EMISSIONS UPDATE TIME    39600.0       0.0
mediation_integrate: med_read_wrf_chem_emissions: Read emissions for time 2018-01-01_11:00:00
 max optd  4.5185168E+30
 max taucldi  1.6238301E-03
 max taucldw  2.8291822E-04
 Switching is not necessary as we are already
 in the right domain!
 GIGC_Chunk_Run: Running for in-PET grid #           1
 GIGC_Chunk_Run: Received new grid IM, JM, LM =          14           9
          49
 =================================================
 W R F - G C   T I M E R S
    Domain           1 (Units: s)
 =================================================
  => Coupler Component                       3.921
   -- Physics & Parameterization             1.178
   -- Diagnostics Out                        0.000
  => GEOS-Chem Column                      262.680
  ===> Total Chemistry                     266.601
  => WRF                                  2894.622
  ===> Total WRF-GC                       3161.224
 max optd  4.5185168E+30
 max taucldi  1.5934522E-03
 max taucldw  2.8126736E-04
 Switching is not necessary as we are already
 in the right domain!
 GIGC_Chunk_Run: Running for in-PET grid #           1
 GIGC_Chunk_Run: Received new grid IM, JM, LM =          14           9
          49
 =================================================
 W R F - G C   T I M E R S
    Domain           1 (Units: s)
 =================================================
  => Coupler Component                       3.951
   -- Physics & Parameterization             1.187
   -- Diagnostics Out                        0.000
  => GEOS-Chem Column                      263.632
  ===> Total Chemistry                     267.583
  => WRF                                  2912.864
  ===> Total WRF-GC                       3180.447
 max optd  4.5185168E+30
 max taucldi  1.5513308E-03
 max taucldw  2.7970879E-04
 Switching is not necessary as we are already
 in the right domain!
 GIGC_Chunk_Run: Running for in-PET grid #           1
 GIGC_Chunk_Run: Received new grid IM, JM, LM =          14           9
          49
 =================================================
 W R F - G C   T I M E R S
    Domain           1 (Units: s)
 =================================================
  => Coupler Component                       3.983
   -- Physics & Parameterization             1.196
   -- Diagnostics Out                        0.000
  => GEOS-Chem Column                      264.583
  ===> Total Chemistry                     268.565
  => WRF                                  2931.217
  ===> Total WRF-GC                       3199.782
 max optd  4.5185168E+30
 max taucldi  1.5035101E-03
 max taucldw  2.7833079E-04
 Switching is not necessary as we are already
 in the right domain!
 GIGC_Chunk_Run: Running for in-PET grid #           1
 GIGC_Chunk_Run: Received new grid IM, JM, LM =          14           9
          49
 =================================================
 W R F - G C   T I M E R S
    Domain           1 (Units: s)
 =================================================
  => Coupler Component                       4.010
   -- Physics & Parameterization             1.205
   -- Diagnostics Out                        0.000
  => GEOS-Chem Column                      265.535
  ===> Total Chemistry                     269.544
  => WRF                                  2949.611
  ===> Total WRF-GC                       3219.155
 max optd  4.5185168E+30
 max taucldi  1.4556197E-03
 max taucldw  2.7666485E-04
 Switching is not necessary as we are already
 in the right domain!
 GIGC_Chunk_Run: Running for in-PET grid #           1
 GIGC_Chunk_Run: Received new grid IM, JM, LM =          14           9
          49
 =================================================
 W R F - G C   T I M E R S
    Domain           1 (Units: s)
 =================================================
  => Coupler Component                       4.041
   -- Physics & Parameterization             1.214
   -- Diagnostics Out                        0.000
  => GEOS-Chem Column                      266.492
  ===> Total Chemistry                     270.533
  => WRF                                  2968.144
  ===> Total WRF-GC                       3238.677
 max optd  4.5185168E+30
 max taucldi  1.4135480E-03
 max taucldw  2.7470684E-04
 Switching is not necessary as we are already
 in the right domain!
 GIGC_Chunk_Run: Running for in-PET grid #           1
 GIGC_Chunk_Run: Received new grid IM, JM, LM =          14           9
          49
 =================================================
 W R F - G C   T I M E R S
    Domain           1 (Units: s)
 =================================================
  => Coupler Component                       4.075
   -- Physics & Parameterization             1.223
   -- Diagnostics Out                        0.000
  => GEOS-Chem Column                      267.438
  ===> Total Chemistry                     271.513
  => WRF                                  2986.644
  ===> Total WRF-GC                       3258.157
 max optd  4.5185168E+30
 max taucldi  1.3780076E-03
 max taucldw  2.7240659E-04
 Switching is not necessary as we are already
 in the right domain!
 GIGC_Chunk_Run: Running for in-PET grid #           1
 GIGC_Chunk_Run: Received new grid IM, JM, LM =          14           9
          49
 =================================================
 W R F - G C   T I M E R S
    Domain           1 (Units: s)
 =================================================
  => Coupler Component                       4.103
   -- Physics & Parameterization             1.231
   -- Diagnostics Out                        0.000
  => GEOS-Chem Column                      268.392
  ===> Total Chemistry                     272.494
  => WRF                                  3005.301
  ===> Total WRF-GC                       3277.795
 max optd  4.5185168E+30
 max taucldi  1.3466660E-03
 max taucldw  2.6987799E-04
 Switching is not necessary as we are already
 in the right domain!
 GIGC_Chunk_Run: Running for in-PET grid #           1
 GIGC_Chunk_Run: Received new grid IM, JM, LM =          14           9
          49
 =================================================
 W R F - G C   T I M E R S
    Domain           1 (Units: s)
 =================================================
  => Coupler Component                       4.135
   -- Physics & Parameterization             1.240
   -- Diagnostics Out                        0.000
  => GEOS-Chem Column                      269.352
  ===> Total Chemistry                     273.487
  => WRF                                  3023.996
  ===> Total WRF-GC                       3297.483
 max optd  4.5185168E+30
 max taucldi  1.3177020E-03
 max taucldw  2.6725457E-04
 Switching is not necessary as we are already
 in the right domain!
 GIGC_Chunk_Run: Running for in-PET grid #           1
 GIGC_Chunk_Run: Received new grid IM, JM, LM =          14           9
          49
 =================================================
 W R F - G C   T I M E R S
    Domain           1 (Units: s)
 =================================================
  => Coupler Component                       4.166
   -- Physics & Parameterization             1.249
   -- Diagnostics Out                        0.000
  => GEOS-Chem Column                      270.307
  ===> Total Chemistry                     274.474
  => WRF                                  3042.765
  ===> Total WRF-GC                       3317.239
 max optd  4.5185168E+30
 max taucldi  1.2855805E-03
 max taucldw  2.6446706E-04
 Switching is not necessary as we are already
 in the right domain!
 GIGC_Chunk_Run: Running for in-PET grid #           1
 GIGC_Chunk_Run: Received new grid IM, JM, LM =          14           9
          49
 =================================================
 W R F - G C   T I M E R S
    Domain           1 (Units: s)
 =================================================
  => Coupler Component                       4.198
   -- Physics & Parameterization             1.258
   -- Diagnostics Out                        0.000
  => GEOS-Chem Column                      271.257
  ===> Total Chemistry                     275.455
  => WRF                                  3061.773
  ===> Total WRF-GC                       3337.228
 max optd  4.5185168E+30
 max taucldi  1.2441553E-03
 max taucldw  2.6145612E-04
 Switching is not necessary as we are already
 in the right domain!
 GIGC_Chunk_Run: Running for in-PET grid #           1
 GIGC_Chunk_Run: Received new grid IM, JM, LM =          14           9
          49
 =================================================
 W R F - G C   T I M E R S
    Domain           1 (Units: s)
 =================================================
  => Coupler Component                       4.232
   -- Physics & Parameterization             1.267
   -- Diagnostics Out                        0.000
  => GEOS-Chem Column                      272.207
  ===> Total Chemistry                     276.439
  => WRF                                  3080.683
  ===> Total WRF-GC                       3357.122
 max optd  4.5185168E+30
 max taucldi  1.1926127E-03
 max taucldw  2.5834778E-04
 Switching is not necessary as we are already
 in the right domain!
 GIGC_Chunk_Run: Running for in-PET grid #           1
 GIGC_Chunk_Run: Received new grid IM, JM, LM =          14           9
          49
 =================================================
 W R F - G C   T I M E R S
    Domain           1 (Units: s)
 =================================================
  => Coupler Component                       4.261
   -- Physics & Parameterization             1.275
   -- Diagnostics Out                        0.000
  => GEOS-Chem Column                      273.159
  ===> Total Chemistry                     277.420
  => WRF                                  3099.545
  ===> Total WRF-GC                       3376.965
d01 2018-01-01_12:00:00 wrf: SUCCESS COMPLETE WRF
