taskid: 1036 hostname: ip-172-31-3-169
Quilting with   1 groups of   0 I/O tasks.
 Ntasks in X           64 , ntasks in Y           72
--- WARNING: traj_opt is zero, but num_traj is not zero; setting num_traj to zero.
--- NOTE: sst_update is 0, setting io_form_auxinput4 = 0 and auxinput4_interval = 0 for all domains
--- NOTE: grid_fdda is 0 for domain      1, setting gfdda interval and ending time to 0 for that domain.
--- NOTE: both grid_sfdda and pxlsm_soil_nudge are 0 for domain      1, setting sgfdda interval and ending time to 0 for that domain.
--- NOTE: obs_nudge_opt is 0 for domain      1, setting obs nudging interval and ending time to 0 for that domain.
--- NOTE: bl_pbl_physics /= 4, implies mfshconv must be 0, resetting
Need MYNN PBL for icloud_bl = 1, resetting to 0
*************************************
No physics suite selected.
Physics options will be used directly from the namelist.
*************************************
--- NOTE: RRTMG radiation is in use, setting:  levsiz=59, alevsiz=12, no_src_types=6
--- NOTE: num_soil_layers has been set to      4
WRF V3.9.1.1 MODEL
 *************************************
 Parent domain
 ids,ide,jds,jde            1         950           1         650
 ims,ime,jms,jme          174         202         139         161
 ips,ipe,jps,jpe          181         195         146         154
 *************************************
DYNAMICS OPTION: Eulerian Mass Coordinate
   alloc_space_field: domain            1 ,              203623800  bytes allocated
  med_initialdata_input: calling input_input
Max map factor in domain 1 =  1.40. Scale the dt in the model accordingly.
INPUT LandUse = "USGS"
 LANDUSE TYPE = "USGS" FOUND          33  CATEGORIES           2  SEASONS WATER CATEGORY =           16  SNOW CATEGORY =           24
INITIALIZE THREE Noah LSM RELATED TABLES
*****************************************************************
  __          _______  ______       _____  _____ _    _ _____
  \ \        / /  __ \|  ____|     / ____|/ ____| |  | |  __ \
   \ \  /\  / /| |__) | |__ ______| |  __| |    | |__| | |__) |
    \ \/  \/ / |  _  /|  __|______| | |_ | |    |  __  |  ___/
     \  /\  /  | | \ \| |         | |__| | |____| |  | | |
      \/  \/   |_|  \_\_|          \_____|\_____|_|  |_|_|
*****************************************************************
         WRF-GC MODEL, VERSION 1811.11 - WRF BINDINGS
 For errors, suggestions & feedback email linhaipeng@pku.edu.cn
*****************************************************************
    This is domain            1
 ### GIGC_Stateful_Mod: Root CPU, after READ_INPUT_FILE
  Linoz Data:  O3 climatology :                  z*=10, 12, ..., 58                             2.700E-08 1.083E-05
  Linoz Data:  Temperature climatology :         z*=10, 12, ..., 58                             1.859E+02 2.904E+02
  Linoz Data:  Column O3 above box climalology : z*=10, 12, ..., 58                             7.538E-02 3.770E+02
  Linoz Data:  P-L O3 climatology (mr/s):        z*=10, 12, ..., 58                            -1.590E-10 2.835E-11
  Linoz Data:  d(P-L)/dO3 (1/s) :                z*=10, 12, ..., 58                            -8.386E-04 7.556E-09
  Linoz Data:  d(P-L)/dT (mr/K) :                z*=10, 12, ..., 58                            -5.742E-12 4.615E-14
  Linoz Data:  d(P-L)/d(column O3) (mr/DU) :     z*=10, 12, ..., 58                            -1.921E-12 5.038E-10
 ### GIGC_Stateful_Mod: Root CPU, after LINOZ_READ
 %%%%%%%%% GIGC IN-PET GRID SWITCHING HACKS %%%%%%%%%
     (Not very) Proudly brought to you by hplin      
 Some debug information:
 ID:           1
 IM, JM, LM:          15           9          49  will be set as PAR
 Allocs: CMN T GC F
 RC at entry-point:           0
 %%%%%%%%%%%%%%%%%%%%%%%%%%%%%%%%%%%%%%%%%%%%%%%%%%%%
 No need to switch HcoState for ID           1
 Exit RC:            0
 %%%%%%%%%    FINISHED GIGC_Switch_Dims    %%%%%%%%%
 GIGC_Chunk_Init: Received new grid IM, JM, LM =          15           9
          49
     ### GIGC_INIT_SIMULATION: after Input_Opt% setups
     ### GIGC_INIT_SIMULATION: after GC_Init_All
     ### GIGC_INIT_SIMULATION: after GC_Init_Extra
     ### GIGC_INIT_SIMULATION: after INIT_FJX
 # GIGC_CHUNK_MOD: after SV save, ID =           1
 WRFGC chemics_init: Following information regarding Input_Opt% (for all doms)
 After domain           1
 HPC:  T
 LPRT:  F
 DoConv:  T
 DoDryDep:  T
 DoEmis:  T
 DoChem:  T
 DoTurb:  T
 DoWetDep:  T

 tropopause_init: DONE intialized domain            1

 mediation_integrate: med_read_wrf_chem_emissions: Open file wrfchemi_00z_d01
 HOURLY EMISSIONS UPDATE TIME        0.0       0.0
mediation_integrate: med_read_wrf_chem_emissions: Read emissions for time 2018-01-01_00:00:00
open_aux_u : error opening wrffirechemi_d01_2018-01-01_00:00:00 for reading. 100
open_aux_u : error opening wrfchemi_gocart_bg_d01 for reading. 100
d01 2018-01-01_00:00:00 Input data processed for aux input   8 for domain   1
open_aux_u : error opening wrfchemv_d01 for reading. 100
 Tile Strategy is not specified. Assuming 1D-Y
WRF TILE   1 IS    181 IE    195 JS    146 JE    154
WRF NUMBER OF TILES =   1
 max optd  4.9168270E+22
 max taucldi  0.0000000E+00
 max taucldw  0.0000000E+00
 =================================================
 W R F - G C   T I M E R S
    Domain           1 (Units: s)
 =================================================
  => Coupler Component                       0.028
   -- Physics & Parameterization             0.001
   -- Diagnostics Out                        0.000
  => GEOS-Chem Column                        0.000
  ===> Total Chemistry                       0.028
  => WRF                                     0.000
  ===> Total WRF-GC                          0.028
 max optd  4.9168270E+22
 max taucldi  1.0000007E-14
 max taucldw  1.0000007E-14
 %%%%%%%%% GIGC IN-PET GRID SWITCHING HACKS %%%%%%%%%
     (Not very) Proudly brought to you by hplin      
 Some debug information:
 ID:           1
 IM, JM, LM:          15           9          49  will be set as PAR
 Allocs: CMN T GC T
 RC at entry-point:           0
 %%%%%%%%%%%%%%%%%%%%%%%%%%%%%%%%%%%%%%%%%%%%%%%%%%%%
 No need to switch HcoState for ID           1
 Debug HcoState nSpc, NX, NY, NZ         163          15           9          49
 Exit RC:            0
 %%%%%%%%%    FINISHED GIGC_Switch_Dims    %%%%%%%%%
 GIGC_Chunk_Run: Running for in-PET grid #           1
 GIGC_Chunk_Run: Received new grid IM, JM, LM =          15           9
          49
HEMCO: Opening /fsx/HEMCO/BIOFUEL/v2014-07/biofuel.geos.4x5.nc
HEMCO: Opening /fsx/HEMCO/BROMINE/v2015-02/Bromocarb_Liang2010.nc
HEMCO: Opening /fsx/HEMCO/ACET/v2014-07/ACET_seawater.generic.1x1.nc
HEMCO: Opening /fsx/HEMCO/SOILNOX/v2014-07/DepReservoirDefault.nc
HEMCO: Opening /fsx/HEMCO/SOILNOX/v2014-07/soilNOx.landtype.generic.025x025.1L.nc
HEMCO: Opening /fsx/HEMCO/SOILNOX/v2014-07/soilNOx.climate.generic.05x05.nc
HEMCO: Opening /fsx/HEMCO/DUST_DEAD/v2014-07/dst_tibds.geos.4x5.nc
HEMCO: Opening /fsx/HEMCO/DUST_DEAD/v2014-07/GOCART_src_fn.geos.4x5.nc
HEMCO: Opening /fsx/HEMCO/MEGAN/v2018-05/MEGAN2.1_EF.geos.025x03125.nc
HEMCO: Opening /fsx/HEMCO/MEGAN/v2017-07/CLM4_PFT.geos.025x03125.nc
HEMCO: Opening /fsx/HEMCO/TIMEZONES/v2015-02/timezones_voronoi_1x1.nc
HEMCO: Opening /fsx/HEMCO/STRAT/v2015-01/Bry/GEOSCCM_Bry.200701.day.nc
HEMCO: Opening /fsx/HEMCO/STRAT/v2015-01/Bry/GEOSCCM_Bry.200701.night.nc
HEMCO: Opening /fsx/HEMCO/OMOC/v2018-01/OMOC.DJF.01x01.nc
HEMCO: Opening /fsx/HEMCO/OMOC/v2018-01/OMOC.MAM.01x01.nc
HEMCO: Opening /fsx/HEMCO/OMOC/v2018-01/OMOC.JJA.01x01.nc
HEMCO: Opening /fsx/HEMCO/OMOC/v2018-01/OMOC.SON.01x01.nc
HEMCO: Opening /fsx/HEMCO/AnnualScalar/v2014-07/AnnualScalar.geos.1x1.nc
HEMCO: Opening /fsx/HEMCO/EDGARv42/v2015-02/NO/EDGAR_hourly_NOxScal.nc
HEMCO: Opening /fsx/HEMCO/MASKS/v2018-09/EMEP_mask.geos.1x1.20151222.nc
HEMCO: Opening /fsx/HEMCO/MASKS/v2018-09/Canada_mask.geos.1x1.nc
HEMCO: Opening /fsx/HEMCO/MASKS/v2018-09/SE_Asia_mask.generic.1x1.nc
HEMCO: Opening /fsx/HEMCO/MASKS/v2018-09/MIX_Asia_mask.generic.025x025.nc
HEMCO: Opening /fsx/HEMCO/MASKS/v2018-09/CONUS_Mask.01x01.nc
HEMCO: Opening /fsx/HEMCO/MASKS/v2018-09/AF_LANDMASK.geos.05x0666.global.nc
HEMCO: Opening /fsx/HEMCO/MASKS/v2018-09/China_mask.generic.1x1.nc
HEMCO: Opening /fsx/HEMCO/MASKS/v2018-09/India_mask.generic.1x1.nc
HEMCO: Opening /fsx/HEMCO/AnnualScalar/v2014-07/AnnualScalar.geos.1x1.nc
HEMCO: Opening /fsx/HEMCO/NH3/v2014-07/NH3_geos.4x5.nc
HEMCO: Opening /fsx/HEMCO/NH3/v2018-04/NH3_Arctic_seabirds.nc
HEMCO: Opening /fsx/HEMCO/CEDS/v2018-08/2014/NO-em-anthro_CMIP_CEDS_2014.nc
HEMCO: Opening /fsx/HEMCO/CEDS/v2018-08/2014/CO-em-anthro_CMIP_CEDS_2014.nc
HEMCO: Opening /fsx/HEMCO/CEDS/v2018-08/2014/SO2-em-anthro_CMIP_CEDS_2014.nc
HEMCO: Opening /fsx/HEMCO/CEDS/v2018-08/2014/NH3-em-anthro_CMIP_CEDS_2014.nc
HEMCO: Opening /fsx/HEMCO/CEDS/v2018-08/2014/BC-em-anthro_CMIP_CEDS_2014.nc
HEMCO: Opening /fsx/HEMCO/CEDS/v2018-08/2014/OC-em-anthro_CMIP_CEDS_2014.nc
HEMCO: Opening /fsx/HEMCO/CEDS/v2018-08/2014/EOH-em-anthro_CMIP_CEDS_2014.nc
HEMCO: Opening /fsx/HEMCO/CEDS/v2018-08/2014/C2H6-em-anthro_CMIP_CEDS_2014.nc
HEMCO: Opening /fsx/HEMCO/CEDS/v2018-08/2014/C3H8-em-anthro_CMIP_CEDS_2014.nc
HEMCO: Opening /fsx/HEMCO/CEDS/v2018-08/2014/ALK4_butanes-em-anthro_CMIP_CEDS_2014.nc
HEMCO: Opening /fsx/HEMCO/CEDS/v2018-08/2014/ALK4_pentanes-em-anthro_CMIP_CEDS_2014.nc
HEMCO: Opening /fsx/HEMCO/CEDS/v2018-08/2014/ALK4_hexanes-em-anthro_CMIP_CEDS_2014.nc
HEMCO: Opening /fsx/HEMCO/CEDS/v2018-08/2014/PRPE-em-anthro_CMIP_CEDS_2014.nc
HEMCO: Opening /fsx/HEMCO/CEDS/v2018-08/2014/BENZ-em-anthro_CMIP_CEDS_2014.nc
HEMCO: Opening /fsx/HEMCO/CEDS/v2018-08/2014/TOLU-em-anthro_CMIP_CEDS_2014.nc
HEMCO: Opening /fsx/HEMCO/CEDS/v2018-08/2014/XYLE-em-anthro_CMIP_CEDS_2014.nc
HEMCO: Opening /fsx/HEMCO/CEDS/v2018-08/2014/CH2O-em-anthro_CMIP_CEDS_2014.nc
HEMCO: Opening /fsx/HEMCO/CEDS/v2018-08/2014/ALD2-em-anthro_CMIP_CEDS_2014.nc
HEMCO: Opening /fsx/HEMCO/CEDS/v2018-08/2014/MEK-em-anthro_CMIP_CEDS_2014.nc
HEMCO: Opening /fsx/HEMCO/CEDS/v2018-08/2014/HCOOH-em-anthro_CMIP_CEDS_2014.nc
HEMCO: Opening /fsx/HEMCO/C2H6_2010/v2017-05/C2H6_global_anth_biof.201001.nc
HEMCO: Opening /fsx/HEMCO/NEI2011/v2017-02-MM/01/NEI11_0.1x0.1_201101_monmean.nc
HEMCO: Opening /fsx/HEMCO/NEI2011/v2017-02-MM/01/NEI11_0.1x0.1_201101_monmean_egu.nc
HEMCO: Opening /fsx/HEMCO/NEI2011/v2017-02-MM/01/NEI11_0.1x0.1_201101_monmean_egupk.nc
HEMCO: Opening /fsx/HEMCO/NEI2011/v2017-02-MM/01/NEI11_0.1x0.1_201101_monmean_oilgas.nc
HEMCO: Opening /fsx/HEMCO/NEI2011/v2017-02-MM/01/NEI11_0.1x0.1_201101_monmean_othpt.nc
HEMCO: Opening /fsx/HEMCO/NEI2011/v2017-02-MM/01/NEI11_0.1x0.1_201101_monmean_ptnonipm.nc
HEMCO: Opening /fsx/HEMCO/IODINE/v2017-09/CH3I_monthly_emissions_Ordonez_2012_COARDS.nc
HEMCO: Opening /fsx/HEMCO/IODINE/v2017-09/CH2I2_monthly_emissions_Ordonez_2012_COARDS.nc
HEMCO: Opening /fsx/HEMCO/IODINE/v2017-09/CH2ICl_monthly_emissions_Ordonez_2012_COARDS.nc
HEMCO: Opening /fsx/HEMCO/IODINE/v2017-09/CH2IBr_monthly_emissions_Ordonez_2012_COARDS.nc
HEMCO: Opening /fsx/HEMCO/CEDS/v2018-08/2014/CO-em-anthro_CMIP_CEDS_2014.nc
HEMCO: Opening /fsx/HEMCO/CEDS/v2018-08/2014/SO2-em-anthro_CMIP_CEDS_2014.nc
HEMCO: Opening /fsx/HEMCO/CEDS/v2018-08/2014/NH3-em-anthro_CMIP_CEDS_2014.nc
HEMCO: Opening /fsx/HEMCO/CEDS/v2018-08/2014/BC-em-anthro_CMIP_CEDS_2014.nc
HEMCO: Opening /fsx/HEMCO/CEDS/v2018-08/2014/OC-em-anthro_CMIP_CEDS_2014.nc
HEMCO: Opening /fsx/HEMCO/CEDS/v2018-08/2014/EOH-em-anthro_CMIP_CEDS_2014.nc
HEMCO: Opening /fsx/HEMCO/CEDS/v2018-08/2014/C2H6-em-anthro_CMIP_CEDS_2014.nc
HEMCO: Opening /fsx/HEMCO/CEDS/v2018-08/2014/C3H8-em-anthro_CMIP_CEDS_2014.nc
HEMCO: Opening /fsx/HEMCO/CEDS/v2018-08/2014/ALK4_butanes-em-anthro_CMIP_CEDS_2014.nc
HEMCO: Opening /fsx/HEMCO/CEDS/v2018-08/2014/ALK4_pentanes-em-anthro_CMIP_CEDS_2014.nc
HEMCO: Opening /fsx/HEMCO/CEDS/v2018-08/2014/ALK4_hexanes-em-anthro_CMIP_CEDS_2014.nc
HEMCO: Opening /fsx/HEMCO/CEDS/v2018-08/2014/PRPE-em-anthro_CMIP_CEDS_2014.nc
HEMCO: Opening /fsx/HEMCO/CEDS/v2018-08/2014/BENZ-em-anthro_CMIP_CEDS_2014.nc
HEMCO: Opening /fsx/HEMCO/CEDS/v2018-08/2014/TOLU-em-anthro_CMIP_CEDS_2014.nc
HEMCO: Opening /fsx/HEMCO/CEDS/v2018-08/2014/XYLE-em-anthro_CMIP_CEDS_2014.nc
HEMCO: Opening /fsx/HEMCO/CEDS/v2018-08/2014/CH2O-em-anthro_CMIP_CEDS_2014.nc
HEMCO: Opening /fsx/HEMCO/CEDS/v2018-08/2014/ALD2-em-anthro_CMIP_CEDS_2014.nc
HEMCO: Opening /fsx/HEMCO/CEDS/v2018-08/2014/MEK-em-anthro_CMIP_CEDS_2014.nc
HEMCO: Opening /fsx/HEMCO/CEDS/v2018-08/2014/HCOOH-em-anthro_CMIP_CEDS_2014.nc
HEMCO: Opening /fsx/HEMCO/CEDS/v2018-08/2014/NO-em-anthro_CMIP_CEDS_2014.nc
HEMCO: Opening /fsx/HEMCO/AEIC/v2015-01/AEIC.47L.gen.1x1.nc
HEMCO: Opening /fsx/HEMCO/ALD2/v2017-03/resp.geos.2x25.nc
HEMCO: Opening /fsx/HEMCO/DMS/v2015-07/DMS_lana.geos.1x1.nc
HEMCO: Opening /fsx/HEMCO/ALD2/v2017-03/ALD2_seawater.geos.2x25.nc
HEMCO: Opening /fsx/HEMCO/DUST_DEAD/v2014-07/dst_tvbds.geos.4x5.nc
HEMCO: Opening /fsx/HEMCO/DUST_DEAD/v2018-04/PM25FINE_ECLIPSE_2015.geos.2x25.nc
HEMCO: Opening /fsx/HEMCO/SOA/v2014-07/NVOC.geos.1x1.nc
HEMCO: Opening /fsx/HEMCO/GFED4/v2015-10/2016/GFED4_gen.025x025.201601.nc
HEMCO: Opening /fsx/HEMCO/UVALBEDO/v2015-03/uvalbedo.geos.2x25.nc
HEMCO: Opening /fsx/HEMCO/GMI/v2015-02/gmi.clim.ACET.geos5.2x25.nc
HEMCO: Opening /fsx/HEMCO/GMI/v2015-02/gmi.clim.ACTA.geos5.2x25.nc
HEMCO: Opening /fsx/HEMCO/GMI/v2015-02/gmi.clim.ALD2.geos5.2x25.nc
HEMCO: Opening /fsx/HEMCO/GMI/v2015-02/gmi.clim.ALK4.geos5.2x25.nc
HEMCO: Opening /fsx/HEMCO/GMI/v2015-02/gmi.clim.C2H6.geos5.2x25.nc
HEMCO: Opening /fsx/HEMCO/GMI/v2015-02/gmi.clim.C3H8.geos5.2x25.nc
HEMCO: Opening /fsx/HEMCO/GMI/v2015-02/gmi.clim.CCl4.geos5.2x25.nc
HEMCO: Opening /fsx/HEMCO/GMI/v2015-02/gmi.clim.CF2Cl2.geos5.2x25.nc
HEMCO: Opening /fsx/HEMCO/GMI/v2015-02/gmi.clim.CF2ClBr.geos5.2x25.nc
HEMCO: Opening /fsx/HEMCO/GMI/v2015-02/gmi.clim.CFC113.geos5.2x25.nc
HEMCO: Opening /fsx/HEMCO/GMI/v2015-02/gmi.clim.CFC114.geos5.2x25.nc
HEMCO: Opening /fsx/HEMCO/GMI/v2015-02/gmi.clim.CFC115.geos5.2x25.nc
HEMCO: Opening /fsx/HEMCO/GMI/v2015-02/gmi.clim.CFCl3.geos5.2x25.nc
HEMCO: Opening /fsx/HEMCO/GMI/v2015-02/gmi.clim.CH2O.geos5.2x25.nc
HEMCO: Opening /fsx/HEMCO/GMI/v2015-02/gmi.clim.CH3CCl3.geos5.2x25.nc
HEMCO: Opening /fsx/HEMCO/GMI/v2015-02/gmi.clim.CH3Cl.geos5.2x25.nc
HEMCO: Opening /fsx/HEMCO/GMI/v2015-02/gmi.clim.CH4.geos5.2x25.nc
HEMCO: Opening /fsx/HEMCO/GMI/v2015-02/gmi.clim.CO.geos5.2x25.nc
HEMCO: Opening /fsx/HEMCO/GMI/v2015-02/gmi.clim.Cl.geos5.2x25.nc
HEMCO: Opening /fsx/HEMCO/GMI/v2015-02/gmi.clim.Cl2.geos5.2x25.nc
HEMCO: Opening /fsx/HEMCO/GMI/v2015-02/gmi.clim.Cl2O2.geos5.2x25.nc
HEMCO: Opening /fsx/HEMCO/GMI/v2015-02/gmi.clim.ClO.geos5.2x25.nc
HEMCO: Opening /fsx/HEMCO/GMI/v2015-02/gmi.clim.EOH.geos5.2x25.nc
HEMCO: Opening /fsx/HEMCO/GMI/v2015-02/gmi.clim.GLYC.geos5.2x25.nc
HEMCO: Opening /fsx/HEMCO/GMI/v2015-02/gmi.clim.GLYX.geos5.2x25.nc
HEMCO: Opening /fsx/HEMCO/GMI/v2015-02/gmi.clim.H2402.geos5.2x25.nc
HEMCO: Opening /fsx/HEMCO/GMI/v2015-02/gmi.clim.H2O.geos5.2x25.nc
HEMCO: Opening /fsx/HEMCO/GMI/v2015-02/gmi.clim.H2O2.geos5.2x25.nc
HEMCO: Opening /fsx/HEMCO/GMI/v2015-02/gmi.clim.HAC.geos5.2x25.nc
HEMCO: Opening /fsx/HEMCO/GMI/v2015-02/gmi.clim.HCFC141b.geos5.2x25.nc
HEMCO: Opening /fsx/HEMCO/GMI/v2015-02/gmi.clim.HCFC142b.geos5.2x25.nc
HEMCO: Opening /fsx/HEMCO/GMI/v2015-02/gmi.clim.HCFC22.geos5.2x25.nc
HEMCO: Opening /fsx/HEMCO/GMI/v2015-02/gmi.clim.HCOOH.geos5.2x25.20170108.nc
HEMCO: Opening /fsx/HEMCO/GMI/v2015-02/gmi.clim.HCl.geos5.2x25.nc
HEMCO: Opening /fsx/HEMCO/GMI/v2015-02/gmi.clim.HNO2.geos5.2x25.nc
HEMCO: Opening /fsx/HEMCO/GMI/v2015-02/gmi.clim.HNO3.geos5.2x25.nc
HEMCO: Opening /fsx/HEMCO/GMI/v2015-02/gmi.clim.HNO4.geos5.2x25.nc
HEMCO: Opening /fsx/HEMCO/GMI/v2015-02/gmi.clim.HOCl.geos5.2x25.nc
HEMCO: Opening /fsx/HEMCO/GMI/v2015-02/gmi.clim.ISN1.geos5.2x25.nc
HEMCO: Opening /fsx/HEMCO/GMI/v2015-02/gmi.clim.ISOP.geos5.2x25.nc
HEMCO: Opening /fsx/HEMCO/GMI/v2015-02/gmi.clim.MACR.geos5.2x25.nc
HEMCO: Opening /fsx/HEMCO/GMI/v2015-02/gmi.clim.MAP.geos5.2x25.nc
HEMCO: Opening /fsx/HEMCO/GMI/v2015-02/gmi.clim.MEK.geos5.2x25.nc
HEMCO: Opening /fsx/HEMCO/GMI/v2015-02/gmi.clim.MGLY.geos5.2x25.nc
HEMCO: Opening /fsx/HEMCO/GMI/v2015-02/gmi.clim.MP.geos5.2x25.nc
HEMCO: Opening /fsx/HEMCO/GMI/v2015-02/gmi.clim.MVK.geos5.2x25.nc
HEMCO: Opening /fsx/HEMCO/GMI/v2015-02/gmi.clim.N2O.geos5.2x25.nc
HEMCO: Opening /fsx/HEMCO/GMI/v2015-02/gmi.clim.N2O5.geos5.2x25.nc
HEMCO: Opening /fsx/HEMCO/GMI/v2015-02/gmi.clim.NO.geos5.2x25.nc
HEMCO: Opening /fsx/HEMCO/GMI/v2015-02/gmi.clim.NO2.geos5.2x25.nc
HEMCO: Opening /fsx/HEMCO/GMI/v2015-02/gmi.clim.NO3.geos5.2x25.nc
HEMCO: Opening /fsx/HEMCO/GMI/v2015-02/gmi.clim.O3.geos5.2x25.nc
HEMCO: Opening /fsx/HEMCO/GMI/v2015-02/gmi.clim.OClO.geos5.2x25.nc
HEMCO: Opening /fsx/HEMCO/GMI/v2015-02/gmi.clim.PAN.geos5.2x25.nc
HEMCO: Opening /fsx/HEMCO/GMI/v2015-02/gmi.clim.NPMN.geos5.2x25.nc
HEMCO: Opening /fsx/HEMCO/GMI/v2015-02/gmi.clim.IPMN.geos5.2x25.nc
HEMCO: Opening /fsx/HEMCO/GMI/v2015-02/gmi.clim.PPN.geos5.2x25.nc
HEMCO: Opening /fsx/HEMCO/GMI/v2015-02/gmi.clim.PRPE.geos5.2x25.nc
HEMCO: Opening /fsx/HEMCO/GMI/v2015-02/gmi.clim.R4N2.geos5.2x25.nc
HEMCO: Opening /fsx/HEMCO/GMI/v2015-02/gmi.clim.RCHO.geos5.2x25.nc
HEMCO: Opening /fsx/HEMCO/GMI/v2015-02/gmi.clim.RIPA.geos5.2x25.nc
HEMCO: Opening /fsx/HEMCO/GMI/v2015-02/gmi.clim.RIPB.geos5.2x25.nc
HEMCO: Opening /fsx/HEMCO/GMI/v2015-02/gmi.clim.RIPD.geos5.2x25.nc
HEMCO: Opening /fsx/HEMCO/GMI/v2015-02/gmi.clim.OH.geos5.2x25.nc
HEMCO: Opening /fsx/HEMCO/NOAA_GMD/v2018-01/monthly.gridded.surface.methane.1979-2020.1x1.nc
HEMCO: Opening /fsx/HEMCO/GEIA/v2014-07/GEIA_monthscal.generic.1x1.nc
HEMCO: Opening /fsx/HEMCO/EMEP/v2015-03/EMEP.Seasonal.geos.1x1.nc
HEMCO: Opening /fsx/HEMCO/BROMINE/v2015-02/BromoCarb_Season.nc
HEMCO: Opening /fsx/HEMCO/EDGARv43/v2016-11/EDGAR_v43.Seasonal.1x1.nc
HEMCO: Opening /fsx/HEMCO/NEI2005/v2014-09/scaling/NEI99.dow.geos.1x1.nc
HEMCO: Opening /fsx/HEMCO/VOLCANO/v2015-02/2009/volc_so2_gen.1x1.47L.200901.nc
HEMCO: Opening /fsx/HEMCO/SOILNOX/v2014-07/soilNOx.fert_res.generic.05x05.nc
 vdinti: pbl height will be limited to bottom           25  model levels. top is
     431.250100000000       hpa
 =================================================
 W R F - G C   T I M E R S
    Domain           1 (Units: s)
 =================================================
  => Coupler Component                       0.052
   -- Physics & Parameterization             0.010
   -- Diagnostics Out                        0.000
  => GEOS-Chem Column                      132.245
  ===> Total Chemistry                     132.297
  => WRF                                    17.295
  ===> Total WRF-GC                        149.592
 max optd  1.9364301E+31
 max taucldi  4.5826565E-07
 max taucldw  2.8426605E-06
 Switching is not necessary as we are already
 in the right domain!
 GIGC_Chunk_Run: Running for in-PET grid #           1
 GIGC_Chunk_Run: Received new grid IM, JM, LM =          15           9
          49
 =================================================
 W R F - G C   T I M E R S
    Domain           1 (Units: s)
 =================================================
  => Coupler Component                       0.076
   -- Physics & Parameterization             0.020
   -- Diagnostics Out                        0.000
  => GEOS-Chem Column                      135.096
  ===> Total Chemistry                     135.172
  => WRF                                    58.648
  ===> Total WRF-GC                        193.820
 max optd  1.9364301E+31
 max taucldi  9.2448158E-07
 max taucldw  5.4453653E-06
 Switching is not necessary as we are already
 in the right domain!
 GIGC_Chunk_Run: Running for in-PET grid #           1
 GIGC_Chunk_Run: Received new grid IM, JM, LM =          15           9
          49
 =================================================
 W R F - G C   T I M E R S
    Domain           1 (Units: s)
 =================================================
  => Coupler Component                       0.106
   -- Physics & Parameterization             0.030
   -- Diagnostics Out                        0.000
  => GEOS-Chem Column                      136.631
  ===> Total Chemistry                     136.737
  => WRF                                    77.660
  ===> Total WRF-GC                        214.398
 max optd  1.9364301E+31
 max taucldi  1.4969743E-05
 max taucldw  7.8299227E-06
 Switching is not necessary as we are already
 in the right domain!
 GIGC_Chunk_Run: Running for in-PET grid #           1
 GIGC_Chunk_Run: Received new grid IM, JM, LM =          15           9
          49
 =================================================
 W R F - G C   T I M E R S
    Domain           1 (Units: s)
 =================================================
  => Coupler Component                       0.139
   -- Physics & Parameterization             0.039
   -- Diagnostics Out                        0.000
  => GEOS-Chem Column                      137.909
  ===> Total Chemistry                     138.047
  => WRF                                    96.213
  ===> Total WRF-GC                        234.260
 max optd  1.9364301E+31
 max taucldi  7.6518664E-03
 max taucldw  9.9776571E-06
 Switching is not necessary as we are already
 in the right domain!
 GIGC_Chunk_Run: Running for in-PET grid #           1
 GIGC_Chunk_Run: Received new grid IM, JM, LM =          15           9
          49
 =================================================
 W R F - G C   T I M E R S
    Domain           1 (Units: s)
 =================================================
  => Coupler Component                       0.177
   -- Physics & Parameterization             0.048
   -- Diagnostics Out                        0.000
  => GEOS-Chem Column                      139.189
  ===> Total Chemistry                     139.366
  => WRF                                   114.566
  ===> Total WRF-GC                        253.932
 max optd  1.9364301E+31
 max taucldi  7.0030212E-02
 max taucldw  1.1941157E-05
 Switching is not necessary as we are already
 in the right domain!
 GIGC_Chunk_Run: Running for in-PET grid #           1
 GIGC_Chunk_Run: Received new grid IM, JM, LM =          15           9
          49
 =================================================
 W R F - G C   T I M E R S
    Domain           1 (Units: s)
 =================================================
  => Coupler Component                       0.211
   -- Physics & Parameterization             0.058
   -- Diagnostics Out                        0.000
  => GEOS-Chem Column                      140.393
  ===> Total Chemistry                     140.604
  => WRF                                   132.780
  ===> Total WRF-GC                        273.384
 max optd  1.9364301E+31
 max taucldi  0.1265456    
 max taucldw  1.3594051E-05
 Switching is not necessary as we are already
 in the right domain!
 GIGC_Chunk_Run: Running for in-PET grid #           1
 GIGC_Chunk_Run: Received new grid IM, JM, LM =          15           9
          49
 =================================================
 W R F - G C   T I M E R S
    Domain           1 (Units: s)
 =================================================
  => Coupler Component                       0.250
   -- Physics & Parameterization             0.068
   -- Diagnostics Out                        0.000
  => GEOS-Chem Column                      141.615
  ===> Total Chemistry                     141.865
  => WRF                                   151.078
  ===> Total WRF-GC                        292.943
 max optd  1.9364301E+31
 max taucldi  0.1646633    
 max taucldw  1.4908315E-05
 Switching is not necessary as we are already
 in the right domain!
 GIGC_Chunk_Run: Running for in-PET grid #           1
 GIGC_Chunk_Run: Received new grid IM, JM, LM =          15           9
          49
 =================================================
 W R F - G C   T I M E R S
    Domain           1 (Units: s)
 =================================================
  => Coupler Component                       0.290
   -- Physics & Parameterization             0.077
   -- Diagnostics Out                        0.000
  => GEOS-Chem Column                      142.819
  ===> Total Chemistry                     143.108
  => WRF                                   169.284
  ===> Total WRF-GC                        312.393
 max optd  1.9364301E+31
 max taucldi  0.1906599    
 max taucldw  1.5748064E-05
 Switching is not necessary as we are already
 in the right domain!
 GIGC_Chunk_Run: Running for in-PET grid #           1
 GIGC_Chunk_Run: Received new grid IM, JM, LM =          15           9
          49
 =================================================
 W R F - G C   T I M E R S
    Domain           1 (Units: s)
 =================================================
  => Coupler Component                       0.324
   -- Physics & Parameterization             0.087
   -- Diagnostics Out                        0.000
  => GEOS-Chem Column                      144.015
  ===> Total Chemistry                     144.339
  => WRF                                   187.511
  ===> Total WRF-GC                        331.849
 max optd  1.9364301E+31
 max taucldi  0.1983619    
 max taucldw  1.6628655E-05
 Switching is not necessary as we are already
 in the right domain!
 GIGC_Chunk_Run: Running for in-PET grid #           1
 GIGC_Chunk_Run: Received new grid IM, JM, LM =          15           9
          49
 =================================================
 W R F - G C   T I M E R S
    Domain           1 (Units: s)
 =================================================
  => Coupler Component                       0.358
   -- Physics & Parameterization             0.096
   -- Diagnostics Out                        0.000
  => GEOS-Chem Column                      145.206
  ===> Total Chemistry                     145.564
  => WRF                                   205.802
  ===> Total WRF-GC                        351.366
 max optd  1.9364301E+31
 max taucldi  0.1890251    
 max taucldw  1.7812974E-05
 Switching is not necessary as we are already
 in the right domain!
 GIGC_Chunk_Run: Running for in-PET grid #           1
 GIGC_Chunk_Run: Received new grid IM, JM, LM =          15           9
          49
 =================================================
 W R F - G C   T I M E R S
    Domain           1 (Units: s)
 =================================================
  => Coupler Component                       0.390
   -- Physics & Parameterization             0.106
   -- Diagnostics Out                        0.000
  => GEOS-Chem Column                      146.387
  ===> Total Chemistry                     146.778
  => WRF                                   224.020
  ===> Total WRF-GC                        370.798
 max optd  1.9364301E+31
 max taucldi  0.1802166    
 max taucldw  1.8699891E-05
 Switching is not necessary as we are already
 in the right domain!
 GIGC_Chunk_Run: Running for in-PET grid #           1
 GIGC_Chunk_Run: Received new grid IM, JM, LM =          15           9
          49
 =================================================
 W R F - G C   T I M E R S
    Domain           1 (Units: s)
 =================================================
  => Coupler Component                       0.422
   -- Physics & Parameterization             0.116
   -- Diagnostics Out                        0.000
  => GEOS-Chem Column                      147.551
  ===> Total Chemistry                     147.973
  => WRF                                   242.138
  ===> Total WRF-GC                        390.111
 HOURLY EMISSIONS UPDATE TIME     3600.0       0.0
mediation_integrate: med_read_wrf_chem_emissions: Read emissions for time 2018-01-01_01:00:00
 max optd  1.9364301E+31
 max taucldi  0.1729864    
 max taucldw  1.9168559E-05
 Switching is not necessary as we are already
 in the right domain!
 GIGC_Chunk_Run: Running for in-PET grid #           1
 GIGC_Chunk_Run: Received new grid IM, JM, LM =          15           9
          49
 =================================================
 W R F - G C   T I M E R S
    Domain           1 (Units: s)
 =================================================
  => Coupler Component                       0.454
   -- Physics & Parameterization             0.125
   -- Diagnostics Out                        0.000
  => GEOS-Chem Column                      148.710
  ===> Total Chemistry                     149.164
  => WRF                                   260.356
  ===> Total WRF-GC                        409.520
 max optd  1.9364301E+31
 max taucldi  0.1686274    
 max taucldw  2.0458718E-05
 Switching is not necessary as we are already
 in the right domain!
 GIGC_Chunk_Run: Running for in-PET grid #           1
 GIGC_Chunk_Run: Received new grid IM, JM, LM =          15           9
          49
 =================================================
 W R F - G C   T I M E R S
    Domain           1 (Units: s)
 =================================================
  => Coupler Component                       0.484
   -- Physics & Parameterization             0.134
   -- Diagnostics Out                        0.000
  => GEOS-Chem Column                      149.873
  ===> Total Chemistry                     150.358
  => WRF                                   278.561
  ===> Total WRF-GC                        428.918
 max optd  1.9364301E+31
 max taucldi  0.1694342    
 max taucldw  2.2039658E-05
 Switching is not necessary as we are already
 in the right domain!
 GIGC_Chunk_Run: Running for in-PET grid #           1
 GIGC_Chunk_Run: Received new grid IM, JM, LM =          15           9
          49
 =================================================
 W R F - G C   T I M E R S
    Domain           1 (Units: s)
 =================================================
  => Coupler Component                       0.521
   -- Physics & Parameterization             0.144
   -- Diagnostics Out                        0.000
  => GEOS-Chem Column                      150.904
  ===> Total Chemistry                     151.425
  => WRF                                   296.641
  ===> Total WRF-GC                        448.066
 max optd  1.9364301E+31
 max taucldi  0.1760039    
 max taucldw  2.3498287E-05
 Switching is not necessary as we are already
 in the right domain!
 GIGC_Chunk_Run: Running for in-PET grid #           1
 GIGC_Chunk_Run: Received new grid IM, JM, LM =          15           9
          49
 =================================================
 W R F - G C   T I M E R S
    Domain           1 (Units: s)
 =================================================
  => Coupler Component                       0.562
   -- Physics & Parameterization             0.154
   -- Diagnostics Out                        0.000
  => GEOS-Chem Column                      151.938
  ===> Total Chemistry                     152.500
  => WRF                                   314.948
  ===> Total WRF-GC                        467.448
 max optd  1.9364301E+31
 max taucldi  0.1745671    
 max taucldw  2.4885992E-05
 Switching is not necessary as we are already
 in the right domain!
 GIGC_Chunk_Run: Running for in-PET grid #           1
 GIGC_Chunk_Run: Received new grid IM, JM, LM =          15           9
          49
 =================================================
 W R F - G C   T I M E R S
    Domain           1 (Units: s)
 =================================================
  => Coupler Component                       0.604
   -- Physics & Parameterization             0.163
   -- Diagnostics Out                        0.000
  => GEOS-Chem Column                      152.974
  ===> Total Chemistry                     153.579
  => WRF                                   333.189
  ===> Total WRF-GC                        486.767
 max optd  1.9364301E+31
 max taucldi  0.1757666    
 max taucldw  2.6723110E-05
 Switching is not necessary as we are already
 in the right domain!
 GIGC_Chunk_Run: Running for in-PET grid #           1
 GIGC_Chunk_Run: Received new grid IM, JM, LM =          15           9
          49
 =================================================
 W R F - G C   T I M E R S
    Domain           1 (Units: s)
 =================================================
  => Coupler Component                       0.648
   -- Physics & Parameterization             0.173
   -- Diagnostics Out                        0.000
  => GEOS-Chem Column                      153.997
  ===> Total Chemistry                     154.645
  => WRF                                   351.390
  ===> Total WRF-GC                        506.035
 max optd  1.9364301E+31
 max taucldi  0.1911761    
 max taucldw  2.8642720E-05
 Switching is not necessary as we are already
 in the right domain!
 GIGC_Chunk_Run: Running for in-PET grid #           1
 GIGC_Chunk_Run: Received new grid IM, JM, LM =          15           9
          49
 =================================================
 W R F - G C   T I M E R S
    Domain           1 (Units: s)
 =================================================
  => Coupler Component                       0.693
   -- Physics & Parameterization             0.183
   -- Diagnostics Out                        0.000
  => GEOS-Chem Column                      155.032
  ===> Total Chemistry                     155.725
  => WRF                                   369.670
  ===> Total WRF-GC                        525.394
 max optd  1.9364301E+31
 max taucldi  0.2010836    
 max taucldw  3.0563013E-05
 Switching is not necessary as we are already
 in the right domain!
 GIGC_Chunk_Run: Running for in-PET grid #           1
 GIGC_Chunk_Run: Received new grid IM, JM, LM =          15           9
          49
 =================================================
 W R F - G C   T I M E R S
    Domain           1 (Units: s)
 =================================================
  => Coupler Component                       0.737
   -- Physics & Parameterization             0.192
   -- Diagnostics Out                        0.000
  => GEOS-Chem Column                      156.058
  ===> Total Chemistry                     156.795
  => WRF                                   388.036
  ===> Total WRF-GC                        544.831
 max optd  1.9364301E+31
 max taucldi  0.1816366    
 max taucldw  3.2376985E-05
 Switching is not necessary as we are already
 in the right domain!
 GIGC_Chunk_Run: Running for in-PET grid #           1
 GIGC_Chunk_Run: Received new grid IM, JM, LM =          15           9
          49
 =================================================
 W R F - G C   T I M E R S
    Domain           1 (Units: s)
 =================================================
  => Coupler Component                       0.781
   -- Physics & Parameterization             0.202
   -- Diagnostics Out                        0.000
  => GEOS-Chem Column                      157.108
  ===> Total Chemistry                     157.889
  => WRF                                   406.158
  ===> Total WRF-GC                        564.047
 max optd  1.9364301E+31
 max taucldi  0.1699994    
 max taucldw  3.4137331E-05
 Switching is not necessary as we are already
 in the right domain!
 GIGC_Chunk_Run: Running for in-PET grid #           1
 GIGC_Chunk_Run: Received new grid IM, JM, LM =          15           9
          49
 =================================================
 W R F - G C   T I M E R S
    Domain           1 (Units: s)
 =================================================
  => Coupler Component                       0.823
   -- Physics & Parameterization             0.211
   -- Diagnostics Out                        0.000
  => GEOS-Chem Column                      158.122
  ===> Total Chemistry                     158.946
  => WRF                                   424.308
  ===> Total WRF-GC                        583.254
 max optd  1.9364301E+31
 max taucldi  0.1928509    
 max taucldw  3.5792396E-05
 Switching is not necessary as we are already
 in the right domain!
 GIGC_Chunk_Run: Running for in-PET grid #           1
 GIGC_Chunk_Run: Received new grid IM, JM, LM =          15           9
          49
 =================================================
 W R F - G C   T I M E R S
    Domain           1 (Units: s)
 =================================================
  => Coupler Component                       0.870
   -- Physics & Parameterization             0.221
   -- Diagnostics Out                        0.000
  => GEOS-Chem Column                      159.157
  ===> Total Chemistry                     160.027
  => WRF                                   442.655
  ===> Total WRF-GC                        602.682
 max optd  1.9364301E+31
 max taucldi  0.2324561    
 max taucldw  3.7353264E-05
 Switching is not necessary as we are already
 in the right domain!
 GIGC_Chunk_Run: Running for in-PET grid #           1
 GIGC_Chunk_Run: Received new grid IM, JM, LM =          15           9
          49
 =================================================
 W R F - G C   T I M E R S
    Domain           1 (Units: s)
 =================================================
  => Coupler Component                       0.919
   -- Physics & Parameterization             0.230
   -- Diagnostics Out                        0.000
  => GEOS-Chem Column                      160.205
  ===> Total Chemistry                     161.124
  => WRF                                   460.844
  ===> Total WRF-GC                        621.968
 HOURLY EMISSIONS UPDATE TIME     7200.0       0.0
mediation_integrate: med_read_wrf_chem_emissions: Read emissions for time 2018-01-01_02:00:00
 max optd  1.9364301E+31
 max taucldi  0.2798840    
 max taucldw  0.1189244    
 Switching is not necessary as we are already
 in the right domain!
 GIGC_Chunk_Run: Running for in-PET grid #           1
 GIGC_Chunk_Run: Received new grid IM, JM, LM =          15           9
          49
 =================================================
 W R F - G C   T I M E R S
    Domain           1 (Units: s)
 =================================================
  => Coupler Component                       0.968
   -- Physics & Parameterization             0.240
   -- Diagnostics Out                        0.000
  => GEOS-Chem Column                      161.241
  ===> Total Chemistry                     162.208
  => WRF                                   479.036
  ===> Total WRF-GC                        641.245
 max optd  1.9364301E+31
 max taucldi  0.2909508    
 max taucldw  4.0397703E-05
 Switching is not necessary as we are already
 in the right domain!
 GIGC_Chunk_Run: Running for in-PET grid #           1
 GIGC_Chunk_Run: Received new grid IM, JM, LM =          15           9
          49
 =================================================
 W R F - G C   T I M E R S
    Domain           1 (Units: s)
 =================================================
  => Coupler Component                       1.012
   -- Physics & Parameterization             0.250
   -- Diagnostics Out                        0.000
  => GEOS-Chem Column                      162.273
  ===> Total Chemistry                     163.284
  => WRF                                   497.263
  ===> Total WRF-GC                        660.547
 max optd  1.9364301E+31
 max taucldi  0.3027820    
 max taucldw  9.6700005E-02
 Switching is not necessary as we are already
 in the right domain!
 GIGC_Chunk_Run: Running for in-PET grid #           1
 GIGC_Chunk_Run: Received new grid IM, JM, LM =          15           9
          49
 =================================================
 W R F - G C   T I M E R S
    Domain           1 (Units: s)
 =================================================
  => Coupler Component                       1.058
   -- Physics & Parameterization             0.259
   -- Diagnostics Out                        0.000
  => GEOS-Chem Column                      163.290
  ===> Total Chemistry                     164.348
  => WRF                                   515.394
  ===> Total WRF-GC                        679.743
 max optd  1.9364301E+31
 max taucldi  0.3094129    
 max taucldw  0.4232646    
 Switching is not necessary as we are already
 in the right domain!
 GIGC_Chunk_Run: Running for in-PET grid #           1
 GIGC_Chunk_Run: Received new grid IM, JM, LM =          15           9
          49
 =================================================
 W R F - G C   T I M E R S
    Domain           1 (Units: s)
 =================================================
  => Coupler Component                       1.105
   -- Physics & Parameterization             0.269
   -- Diagnostics Out                        0.000
  => GEOS-Chem Column                      164.325
  ===> Total Chemistry                     165.430
  => WRF                                   533.527
  ===> Total WRF-GC                        698.958
 max optd  1.9364301E+31
 max taucldi  0.3060885    
 max taucldw  0.5286936    
 Switching is not necessary as we are already
 in the right domain!
 GIGC_Chunk_Run: Running for in-PET grid #           1
 GIGC_Chunk_Run: Received new grid IM, JM, LM =          15           9
          49
 =================================================
 W R F - G C   T I M E R S
    Domain           1 (Units: s)
 =================================================
  => Coupler Component                       1.150
   -- Physics & Parameterization             0.279
   -- Diagnostics Out                        0.000
  => GEOS-Chem Column                      165.353
  ===> Total Chemistry                     166.503
  => WRF                                   551.674
  ===> Total WRF-GC                        718.177
 max optd  1.9364301E+31
 max taucldi  0.2995553    
 max taucldw  0.2618898    
 Switching is not necessary as we are already
 in the right domain!
 GIGC_Chunk_Run: Running for in-PET grid #           1
 GIGC_Chunk_Run: Received new grid IM, JM, LM =          15           9
          49
 =================================================
 W R F - G C   T I M E R S
    Domain           1 (Units: s)
 =================================================
  => Coupler Component                       1.195
   -- Physics & Parameterization             0.289
   -- Diagnostics Out                        0.000
  => GEOS-Chem Column                      166.397
  ===> Total Chemistry                     167.592
  => WRF                                   569.835
  ===> Total WRF-GC                        737.426
 max optd  1.9364301E+31
 max taucldi  0.2627801    
 max taucldw  4.6369987E-05
 Switching is not necessary as we are already
 in the right domain!
 GIGC_Chunk_Run: Running for in-PET grid #           1
 GIGC_Chunk_Run: Received new grid IM, JM, LM =          15           9
          49
 =================================================
 W R F - G C   T I M E R S
    Domain           1 (Units: s)
 =================================================
  => Coupler Component                       1.241
   -- Physics & Parameterization             0.298
   -- Diagnostics Out                        0.000
  => GEOS-Chem Column                      167.410
  ===> Total Chemistry                     168.651
  => WRF                                   587.965
  ===> Total WRF-GC                        756.616
 max optd  1.9364301E+31
 max taucldi  0.1860931    
 max taucldw  4.7166410E-05
 Switching is not necessary as we are already
 in the right domain!
 GIGC_Chunk_Run: Running for in-PET grid #           1
 GIGC_Chunk_Run: Received new grid IM, JM, LM =          15           9
          49
 =================================================
 W R F - G C   T I M E R S
    Domain           1 (Units: s)
 =================================================
  => Coupler Component                       1.289
   -- Physics & Parameterization             0.308
   -- Diagnostics Out                        0.000
  => GEOS-Chem Column                      168.449
  ===> Total Chemistry                     169.738
  => WRF                                   606.092
  ===> Total WRF-GC                        775.829
 max optd  1.9364301E+31
 max taucldi  0.1398889    
 max taucldw  5.0876701E-05
 Switching is not necessary as we are already
 in the right domain!
 GIGC_Chunk_Run: Running for in-PET grid #           1
 GIGC_Chunk_Run: Received new grid IM, JM, LM =          15           9
          49
 =================================================
 W R F - G C   T I M E R S
    Domain           1 (Units: s)
 =================================================
  => Coupler Component                       1.335
   -- Physics & Parameterization             0.318
   -- Diagnostics Out                        0.000
  => GEOS-Chem Column                      169.482
  ===> Total Chemistry                     170.817
  => WRF                                   624.199
  ===> Total WRF-GC                        795.017
 max optd  1.9364301E+31
 max taucldi  8.7696254E-02
 max taucldw  5.6939491E-05
 Switching is not necessary as we are already
 in the right domain!
 GIGC_Chunk_Run: Running for in-PET grid #           1
 GIGC_Chunk_Run: Received new grid IM, JM, LM =          15           9
          49
 =================================================
 W R F - G C   T I M E R S
    Domain           1 (Units: s)
 =================================================
  => Coupler Component                       1.376
   -- Physics & Parameterization             0.328
   -- Diagnostics Out                        0.000
  => GEOS-Chem Column                      170.505
  ===> Total Chemistry                     171.881
  => WRF                                   642.350
  ===> Total WRF-GC                        814.232
 max optd  1.9364301E+31
 max taucldi  9.3288526E-02
 max taucldw  6.4092776E-05
 Switching is not necessary as we are already
 in the right domain!
 GIGC_Chunk_Run: Running for in-PET grid #           1
 GIGC_Chunk_Run: Received new grid IM, JM, LM =          15           9
          49
 =================================================
 W R F - G C   T I M E R S
    Domain           1 (Units: s)
 =================================================
  => Coupler Component                       1.422
   -- Physics & Parameterization             0.337
   -- Diagnostics Out                        0.000
  => GEOS-Chem Column                      171.547
  ===> Total Chemistry                     172.970
  => WRF                                   660.444
  ===> Total WRF-GC                        833.413
 max optd  1.9364301E+31
 max taucldi  0.1014382    
 max taucldw  7.2340510E-05
 Switching is not necessary as we are already
 in the right domain!
 GIGC_Chunk_Run: Running for in-PET grid #           1
 GIGC_Chunk_Run: Received new grid IM, JM, LM =          15           9
          49
 =================================================
 W R F - G C   T I M E R S
    Domain           1 (Units: s)
 =================================================
  => Coupler Component                       1.471
   -- Physics & Parameterization             0.347
   -- Diagnostics Out                        0.000
  => GEOS-Chem Column                      172.588
  ===> Total Chemistry                     174.059
  => WRF                                   678.523
  ===> Total WRF-GC                        852.583
 HOURLY EMISSIONS UPDATE TIME    10800.0       0.0
mediation_integrate: med_read_wrf_chem_emissions: Read emissions for time 2018-01-01_03:00:00
 max optd  1.9364301E+31
 max taucldi  0.1104246    
 max taucldw  8.1723701E-05
 Switching is not necessary as we are already
 in the right domain!
 GIGC_Chunk_Run: Running for in-PET grid #           1
 GIGC_Chunk_Run: Received new grid IM, JM, LM =          15           9
          49
 =================================================
 W R F - G C   T I M E R S
    Domain           1 (Units: s)
 =================================================
  => Coupler Component                       1.519
   -- Physics & Parameterization             0.357
   -- Diagnostics Out                        0.000
  => GEOS-Chem Column                      173.625
  ===> Total Chemistry                     175.144
  => WRF                                   696.656
  ===> Total WRF-GC                        871.800
 max optd  1.9364301E+31
 max taucldi  0.1147220    
 max taucldw  9.2159869E-05
 Switching is not necessary as we are already
 in the right domain!
 GIGC_Chunk_Run: Running for in-PET grid #           1
 GIGC_Chunk_Run: Received new grid IM, JM, LM =          15           9
          49
 =================================================
 W R F - G C   T I M E R S
    Domain           1 (Units: s)
 =================================================
  => Coupler Component                       1.570
   -- Physics & Parameterization             0.366
   -- Diagnostics Out                        0.000
  => GEOS-Chem Column                      174.668
  ===> Total Chemistry                     176.238
  => WRF                                   714.748
  ===> Total WRF-GC                        890.986
 max optd  1.9364301E+31
 max taucldi  0.1182037    
 max taucldw  1.0311999E-04
 Switching is not necessary as we are already
 in the right domain!
 GIGC_Chunk_Run: Running for in-PET grid #           1
 GIGC_Chunk_Run: Received new grid IM, JM, LM =          15           9
          49
 =================================================
 W R F - G C   T I M E R S
    Domain           1 (Units: s)
 =================================================
  => Coupler Component                       1.616
   -- Physics & Parameterization             0.376
   -- Diagnostics Out                        0.000
  => GEOS-Chem Column                      175.727
  ===> Total Chemistry                     177.342
  => WRF                                   732.857
  ===> Total WRF-GC                        910.200
 max optd  1.9364301E+31
 max taucldi  0.1215578    
 max taucldw  1.1460784E-04
 Switching is not necessary as we are already
 in the right domain!
 GIGC_Chunk_Run: Running for in-PET grid #           1
 GIGC_Chunk_Run: Received new grid IM, JM, LM =          15           9
          49
 =================================================
 W R F - G C   T I M E R S
    Domain           1 (Units: s)
 =================================================
  => Coupler Component                       1.661
   -- Physics & Parameterization             0.386
   -- Diagnostics Out                        0.000
  => GEOS-Chem Column                      176.761
  ===> Total Chemistry                     178.423
  => WRF                                   750.927
  ===> Total WRF-GC                        929.349
 max optd  1.9364301E+31
 max taucldi  0.1218717    
 max taucldw  1.2690641E-04
 Switching is not necessary as we are already
 in the right domain!
 GIGC_Chunk_Run: Running for in-PET grid #           1
 GIGC_Chunk_Run: Received new grid IM, JM, LM =          15           9
          49
 =================================================
 W R F - G C   T I M E R S
    Domain           1 (Units: s)
 =================================================
  => Coupler Component                       1.712
   -- Physics & Parameterization             0.395
   -- Diagnostics Out                        0.000
  => GEOS-Chem Column                      177.806
  ===> Total Chemistry                     179.518
  => WRF                                   768.999
  ===> Total WRF-GC                        948.517
 max optd  1.9364301E+31
 max taucldi  0.1174701    
 max taucldw  1.4028876E-04
 Switching is not necessary as we are already
 in the right domain!
 GIGC_Chunk_Run: Running for in-PET grid #           1
 GIGC_Chunk_Run: Received new grid IM, JM, LM =          15           9
          49
 =================================================
 W R F - G C   T I M E R S
    Domain           1 (Units: s)
 =================================================
  => Coupler Component                       1.755
   -- Physics & Parameterization             0.405
   -- Diagnostics Out                        0.000
  => GEOS-Chem Column                      178.860
  ===> Total Chemistry                     180.615
  => WRF                                   787.335
  ===> Total WRF-GC                        967.950
 max optd  1.9364301E+31
 max taucldi  0.1146139    
 max taucldw  1.5434278E-04
 Switching is not necessary as we are already
 in the right domain!
 GIGC_Chunk_Run: Running for in-PET grid #           1
 GIGC_Chunk_Run: Received new grid IM, JM, LM =          15           9
          49
 =================================================
 W R F - G C   T I M E R S
    Domain           1 (Units: s)
 =================================================
  => Coupler Component                       1.804
   -- Physics & Parameterization             0.415
   -- Diagnostics Out                        0.000
  => GEOS-Chem Column                      179.900
  ===> Total Chemistry                     181.704
  => WRF                                   805.502
  ===> Total WRF-GC                        987.206
 max optd  1.9364301E+31
 max taucldi  0.1231672    
 max taucldw  1.6825597E-04
 Switching is not necessary as we are already
 in the right domain!
 GIGC_Chunk_Run: Running for in-PET grid #           1
 GIGC_Chunk_Run: Received new grid IM, JM, LM =          15           9
          49
 =================================================
 W R F - G C   T I M E R S
    Domain           1 (Units: s)
 =================================================
  => Coupler Component                       1.850
   -- Physics & Parameterization             0.425
   -- Diagnostics Out                        0.000
  => GEOS-Chem Column                      180.951
  ===> Total Chemistry                     182.800
  => WRF                                   823.545
  ===> Total WRF-GC                       1006.345
 max optd  1.9364301E+31
 max taucldi  0.1293519    
 max taucldw  1.8112469E-04
 Switching is not necessary as we are already
 in the right domain!
 GIGC_Chunk_Run: Running for in-PET grid #           1
 GIGC_Chunk_Run: Received new grid IM, JM, LM =          15           9
          49
 =================================================
 W R F - G C   T I M E R S
    Domain           1 (Units: s)
 =================================================
  => Coupler Component                       1.898
   -- Physics & Parameterization             0.434
   -- Diagnostics Out                        0.000
  => GEOS-Chem Column                      181.996
  ===> Total Chemistry                     183.894
  => WRF                                   841.748
  ===> Total WRF-GC                       1025.642
 max optd  1.9364301E+31
 max taucldi  0.1331512    
 max taucldw  1.9292215E-04
 Switching is not necessary as we are already
 in the right domain!
 GIGC_Chunk_Run: Running for in-PET grid #           1
 GIGC_Chunk_Run: Received new grid IM, JM, LM =          15           9
          49
 =================================================
 W R F - G C   T I M E R S
    Domain           1 (Units: s)
 =================================================
  => Coupler Component                       1.943
   -- Physics & Parameterization             0.444
   -- Diagnostics Out                        0.000
  => GEOS-Chem Column                      183.041
  ===> Total Chemistry                     184.985
  => WRF                                   859.887
  ===> Total WRF-GC                       1044.871
 max optd  1.9364301E+31
 max taucldi  0.1461480    
 max taucldw  2.0399023E-04
 Switching is not necessary as we are already
 in the right domain!
 GIGC_Chunk_Run: Running for in-PET grid #           1
 GIGC_Chunk_Run: Received new grid IM, JM, LM =          15           9
          49
 =================================================
 W R F - G C   T I M E R S
    Domain           1 (Units: s)
 =================================================
  => Coupler Component                       1.992
   -- Physics & Parameterization             0.454
   -- Diagnostics Out                        0.000
  => GEOS-Chem Column                      184.084
  ===> Total Chemistry                     186.076
  => WRF                                   877.983
  ===> Total WRF-GC                       1064.060
 max optd  1.9364301E+31
 max taucldi  0.1844753    
 max taucldw  2.1423098E-04
 Switching is not necessary as we are already
 in the right domain!
 GIGC_Chunk_Run: Running for in-PET grid #           1
 GIGC_Chunk_Run: Received new grid IM, JM, LM =          15           9
          49
 =================================================
 W R F - G C   T I M E R S
    Domain           1 (Units: s)
 =================================================
  => Coupler Component                       2.038
   -- Physics & Parameterization             0.464
   -- Diagnostics Out                        0.000
  => GEOS-Chem Column                      185.137
  ===> Total Chemistry                     187.175
  => WRF                                   896.126
  ===> Total WRF-GC                       1083.301
 HOURLY EMISSIONS UPDATE TIME    14400.0       0.0
mediation_integrate: med_read_wrf_chem_emissions: Read emissions for time 2018-01-01_04:00:00
 max optd  1.9364301E+31
 max taucldi  0.1844505    
 max taucldw  2.2337232E-04
 Switching is not necessary as we are already
 in the right domain!
 GIGC_Chunk_Run: Running for in-PET grid #           1
 GIGC_Chunk_Run: Received new grid IM, JM, LM =          15           9
          49
 =================================================
 W R F - G C   T I M E R S
    Domain           1 (Units: s)
 =================================================
  => Coupler Component                       2.084
   -- Physics & Parameterization             0.473
   -- Diagnostics Out                        0.000
  => GEOS-Chem Column                      186.188
  ===> Total Chemistry                     188.272
  => WRF                                   914.261
  ===> Total WRF-GC                       1102.533
 max optd  1.9364301E+31
 max taucldi  0.1934301    
 max taucldw  2.3094258E-04
 Switching is not necessary as we are already
 in the right domain!
 GIGC_Chunk_Run: Running for in-PET grid #           1
 GIGC_Chunk_Run: Received new grid IM, JM, LM =          15           9
          49
 =================================================
 W R F - G C   T I M E R S
    Domain           1 (Units: s)
 =================================================
  => Coupler Component                       2.128
   -- Physics & Parameterization             0.483
   -- Diagnostics Out                        0.000
  => GEOS-Chem Column                      187.240
  ===> Total Chemistry                     189.368
  => WRF                                   932.386
  ===> Total WRF-GC                       1121.754
 max optd  1.9364301E+31
 max taucldi  0.1981720    
 max taucldw  2.3685416E-04
 Switching is not necessary as we are already
 in the right domain!
 GIGC_Chunk_Run: Running for in-PET grid #           1
 GIGC_Chunk_Run: Received new grid IM, JM, LM =          15           9
          49
 =================================================
 W R F - G C   T I M E R S
    Domain           1 (Units: s)
 =================================================
  => Coupler Component                       2.171
   -- Physics & Parameterization             0.493
   -- Diagnostics Out                        0.000
  => GEOS-Chem Column                      188.290
  ===> Total Chemistry                     190.462
  => WRF                                   950.606
  ===> Total WRF-GC                       1141.067
 max optd  1.9364301E+31
 max taucldi  0.2035228    
 max taucldw  2.4103325E-04
 Switching is not necessary as we are already
 in the right domain!
 GIGC_Chunk_Run: Running for in-PET grid #           1
 GIGC_Chunk_Run: Received new grid IM, JM, LM =          15           9
          49
 =================================================
 W R F - G C   T I M E R S
    Domain           1 (Units: s)
 =================================================
  => Coupler Component                       2.207
   -- Physics & Parameterization             0.502
   -- Diagnostics Out                        0.000
  => GEOS-Chem Column                      189.325
  ===> Total Chemistry                     191.532
  => WRF                                   968.741
  ===> Total WRF-GC                       1160.272
 max optd  1.9364301E+31
 max taucldi  0.2081756    
 max taucldw  2.4373677E-04
 Switching is not necessary as we are already
 in the right domain!
 GIGC_Chunk_Run: Running for in-PET grid #           1
 GIGC_Chunk_Run: Received new grid IM, JM, LM =          15           9
          49
 =================================================
 W R F - G C   T I M E R S
    Domain           1 (Units: s)
 =================================================
  => Coupler Component                       2.255
   -- Physics & Parameterization             0.512
   -- Diagnostics Out                        0.000
  => GEOS-Chem Column                      190.367
  ===> Total Chemistry                     192.622
  => WRF                                   986.882
  ===> Total WRF-GC                       1179.503
 max optd  1.9364301E+31
 max taucldi  0.2278304    
 max taucldw  2.4536182E-04
 Switching is not necessary as we are already
 in the right domain!
 GIGC_Chunk_Run: Running for in-PET grid #           1
 GIGC_Chunk_Run: Received new grid IM, JM, LM =          15           9
          49
 =================================================
 W R F - G C   T I M E R S
    Domain           1 (Units: s)
 =================================================
  => Coupler Component                       2.298
   -- Physics & Parameterization             0.522
   -- Diagnostics Out                        0.000
  => GEOS-Chem Column                      191.424
  ===> Total Chemistry                     193.722
  => WRF                                  1005.032
  ===> Total WRF-GC                       1198.755
 max optd  1.9364301E+31
 max taucldi  0.2538062    
 max taucldw  2.4591840E-04
 Switching is not necessary as we are already
 in the right domain!
 GIGC_Chunk_Run: Running for in-PET grid #           1
 GIGC_Chunk_Run: Received new grid IM, JM, LM =          15           9
          49
 =================================================
 W R F - G C   T I M E R S
    Domain           1 (Units: s)
 =================================================
  => Coupler Component                       2.346
   -- Physics & Parameterization             0.532
   -- Diagnostics Out                        0.000
  => GEOS-Chem Column                      192.471
  ===> Total Chemistry                     194.816
  => WRF                                  1023.202
  ===> Total WRF-GC                       1218.018
 max optd  1.9364301E+31
 max taucldi  0.2697288    
 max taucldw  2.4567178E-04
 Switching is not necessary as we are already
 in the right domain!
 GIGC_Chunk_Run: Running for in-PET grid #           1
 GIGC_Chunk_Run: Received new grid IM, JM, LM =          15           9
          49
 =================================================
 W R F - G C   T I M E R S
    Domain           1 (Units: s)
 =================================================
  => Coupler Component                       2.391
   -- Physics & Parameterization             0.542
   -- Diagnostics Out                        0.000
  => GEOS-Chem Column                      193.521
  ===> Total Chemistry                     195.912
  => WRF                                  1041.316
  ===> Total WRF-GC                       1237.227
 max optd  1.9364301E+31
 max taucldi  0.2876977    
 max taucldw  2.4510300E-04
 Switching is not necessary as we are already
 in the right domain!
 GIGC_Chunk_Run: Running for in-PET grid #           1
 GIGC_Chunk_Run: Received new grid IM, JM, LM =          15           9
          49
 =================================================
 W R F - G C   T I M E R S
    Domain           1 (Units: s)
 =================================================
  => Coupler Component                       2.435
   -- Physics & Parameterization             0.551
   -- Diagnostics Out                        0.000
  => GEOS-Chem Column                      194.581
  ===> Total Chemistry                     197.015
  => WRF                                  1059.453
  ===> Total WRF-GC                       1256.468
 max optd  1.9364301E+31
 max taucldi  0.3032339    
 max taucldw  2.4369375E-04
 Switching is not necessary as we are already
 in the right domain!
 GIGC_Chunk_Run: Running for in-PET grid #           1
 GIGC_Chunk_Run: Received new grid IM, JM, LM =          15           9
          49
 =================================================
 W R F - G C   T I M E R S
    Domain           1 (Units: s)
 =================================================
  => Coupler Component                       2.474
   -- Physics & Parameterization             0.561
   -- Diagnostics Out                        0.000
  => GEOS-Chem Column                      195.646
  ===> Total Chemistry                     198.120
  => WRF                                  1077.567
  ===> Total WRF-GC                       1275.687
 max optd  1.9364301E+31
 max taucldi  0.3135741    
 max taucldw  2.4125581E-04
 Switching is not necessary as we are already
 in the right domain!
 GIGC_Chunk_Run: Running for in-PET grid #           1
 GIGC_Chunk_Run: Received new grid IM, JM, LM =          15           9
          49
 =================================================
 W R F - G C   T I M E R S
    Domain           1 (Units: s)
 =================================================
  => Coupler Component                       2.515
   -- Physics & Parameterization             0.571
   -- Diagnostics Out                        0.000
  => GEOS-Chem Column                      196.700
  ===> Total Chemistry                     199.215
  => WRF                                  1095.645
  ===> Total WRF-GC                       1294.860
 max optd  1.9364301E+31
 max taucldi  0.3218858    
 max taucldw  2.3853843E-04
 Switching is not necessary as we are already
 in the right domain!
 GIGC_Chunk_Run: Running for in-PET grid #           1
 GIGC_Chunk_Run: Received new grid IM, JM, LM =          15           9
          49
 =================================================
 W R F - G C   T I M E R S
    Domain           1 (Units: s)
 =================================================
  => Coupler Component                       2.559
   -- Physics & Parameterization             0.581
   -- Diagnostics Out                        0.000
  => GEOS-Chem Column                      197.754
  ===> Total Chemistry                     200.313
  => WRF                                  1113.692
  ===> Total WRF-GC                       1314.005
 HOURLY EMISSIONS UPDATE TIME    18000.0       0.0
mediation_integrate: med_read_wrf_chem_emissions: Read emissions for time 2018-01-01_05:00:00
 max optd  1.9364301E+31
 max taucldi  0.3280087    
 max taucldw  2.3607023E-04
 Switching is not necessary as we are already
 in the right domain!
 GIGC_Chunk_Run: Running for in-PET grid #           1
 GIGC_Chunk_Run: Received new grid IM, JM, LM =          15           9
          49
 =================================================
 W R F - G C   T I M E R S
    Domain           1 (Units: s)
 =================================================
  => Coupler Component                       2.601
   -- Physics & Parameterization             0.591
   -- Diagnostics Out                        0.000
  => GEOS-Chem Column                      198.819
  ===> Total Chemistry                     201.420
  => WRF                                  1131.853
  ===> Total WRF-GC                       1333.273
 max optd  1.9364301E+31
 max taucldi  0.3373221    
 max taucldw  2.3591291E-04
 Switching is not necessary as we are already
 in the right domain!
 GIGC_Chunk_Run: Running for in-PET grid #           1
 GIGC_Chunk_Run: Received new grid IM, JM, LM =          15           9
          49
 =================================================
 W R F - G C   T I M E R S
    Domain           1 (Units: s)
 =================================================
  => Coupler Component                       2.648
   -- Physics & Parameterization             0.600
   -- Diagnostics Out                        0.000
  => GEOS-Chem Column                      199.861
  ===> Total Chemistry                     202.509
  => WRF                                  1149.942
  ===> Total WRF-GC                       1352.451
 max optd  1.9364301E+31
 max taucldi  0.3450683    
 max taucldw  2.4811749E-04
 Switching is not necessary as we are already
 in the right domain!
 GIGC_Chunk_Run: Running for in-PET grid #           1
 GIGC_Chunk_Run: Received new grid IM, JM, LM =          15           9
          49
 =================================================
 W R F - G C   T I M E R S
    Domain           1 (Units: s)
 =================================================
  => Coupler Component                       2.686
   -- Physics & Parameterization             0.610
   -- Diagnostics Out                        0.000
  => GEOS-Chem Column                      200.929
  ===> Total Chemistry                     203.615
  => WRF                                  1168.043
  ===> Total WRF-GC                       1371.658
 max optd  1.9364301E+31
 max taucldi  0.3491541    
 max taucldw  2.6098205E-04
 Switching is not necessary as we are already
 in the right domain!
 GIGC_Chunk_Run: Running for in-PET grid #           1
 GIGC_Chunk_Run: Received new grid IM, JM, LM =          15           9
          49
 =================================================
 W R F - G C   T I M E R S
    Domain           1 (Units: s)
 =================================================
  => Coupler Component                       2.725
   -- Physics & Parameterization             0.620
   -- Diagnostics Out                        0.000
  => GEOS-Chem Column                      201.994
  ===> Total Chemistry                     204.719
  => WRF                                  1186.168
  ===> Total WRF-GC                       1390.886
 max optd  1.9364301E+31
 max taucldi  0.3509007    
 max taucldw  2.7437040E-04
 Switching is not necessary as we are already
 in the right domain!
 GIGC_Chunk_Run: Running for in-PET grid #           1
 GIGC_Chunk_Run: Received new grid IM, JM, LM =          15           9
          49
 =================================================
 W R F - G C   T I M E R S
    Domain           1 (Units: s)
 =================================================
  => Coupler Component                       2.769
   -- Physics & Parameterization             0.630
   -- Diagnostics Out                        0.000
  => GEOS-Chem Column                      203.037
  ===> Total Chemistry                     205.807
  => WRF                                  1204.332
  ===> Total WRF-GC                       1410.139
 max optd  1.9364301E+31
 max taucldi  0.3414598    
 max taucldw  2.8842292E-04
 Switching is not necessary as we are already
 in the right domain!
 GIGC_Chunk_Run: Running for in-PET grid #           1
 GIGC_Chunk_Run: Received new grid IM, JM, LM =          15           9
          49
 =================================================
 W R F - G C   T I M E R S
    Domain           1 (Units: s)
 =================================================
  => Coupler Component                       2.810
   -- Physics & Parameterization             0.640
   -- Diagnostics Out                        0.000
  => GEOS-Chem Column                      204.104
  ===> Total Chemistry                     206.914
  => WRF                                  1222.417
  ===> Total WRF-GC                       1429.331
 max optd  1.9364301E+31
 max taucldi  0.3363908    
 max taucldw  3.0317559E-04
 Switching is not necessary as we are already
 in the right domain!
 GIGC_Chunk_Run: Running for in-PET grid #           1
 GIGC_Chunk_Run: Received new grid IM, JM, LM =          15           9
          49
 =================================================
 W R F - G C   T I M E R S
    Domain           1 (Units: s)
 =================================================
  => Coupler Component                       2.849
   -- Physics & Parameterization             0.650
   -- Diagnostics Out                        0.000
  => GEOS-Chem Column                      205.164
  ===> Total Chemistry                     208.013
  => WRF                                  1240.607
  ===> Total WRF-GC                       1448.620
 max optd  1.9364301E+31
 max taucldi  0.3364266    
 max taucldw  3.1870895E-04
 Switching is not necessary as we are already
 in the right domain!
 GIGC_Chunk_Run: Running for in-PET grid #           1
 GIGC_Chunk_Run: Received new grid IM, JM, LM =          15           9
          49
 =================================================
 W R F - G C   T I M E R S
    Domain           1 (Units: s)
 =================================================
  => Coupler Component                       2.893
   -- Physics & Parameterization             0.659
   -- Diagnostics Out                        0.000
  => GEOS-Chem Column                      206.225
  ===> Total Chemistry                     209.118
  => WRF                                  1258.702
  ===> Total WRF-GC                       1467.820
 max optd  1.9364301E+31
 max taucldi  0.3402019    
 max taucldw  3.3515223E-04
 Switching is not necessary as we are already
 in the right domain!
 GIGC_Chunk_Run: Running for in-PET grid #           1
 GIGC_Chunk_Run: Received new grid IM, JM, LM =          15           9
          49
 =================================================
 W R F - G C   T I M E R S
    Domain           1 (Units: s)
 =================================================
  => Coupler Component                       2.935
   -- Physics & Parameterization             0.669
   -- Diagnostics Out                        0.000
  => GEOS-Chem Column                      207.291
  ===> Total Chemistry                     210.226
  => WRF                                  1276.858
  ===> Total WRF-GC                       1487.084
 max optd  1.9364301E+31
 max taucldi  0.3311350    
 max taucldw  3.5245050E-04
 Switching is not necessary as we are already
 in the right domain!
 GIGC_Chunk_Run: Running for in-PET grid #           1
 GIGC_Chunk_Run: Received new grid IM, JM, LM =          15           9
          49
 =================================================
 W R F - G C   T I M E R S
    Domain           1 (Units: s)
 =================================================
  => Coupler Component                       2.976
   -- Physics & Parameterization             0.678
   -- Diagnostics Out                        0.000
  => GEOS-Chem Column                      208.360
  ===> Total Chemistry                     211.336
  => WRF                                  1295.243
  ===> Total WRF-GC                       1506.579
 max optd  1.9364301E+31
 max taucldi  0.3134059    
 max taucldw  3.7029746E-04
 Switching is not necessary as we are already
 in the right domain!
 GIGC_Chunk_Run: Running for in-PET grid #           1
 GIGC_Chunk_Run: Received new grid IM, JM, LM =          15           9
          49
 =================================================
 W R F - G C   T I M E R S
    Domain           1 (Units: s)
 =================================================
  => Coupler Component                       3.013
   -- Physics & Parameterization             0.688
   -- Diagnostics Out                        0.000
  => GEOS-Chem Column                      209.436
  ===> Total Chemistry                     212.449
  => WRF                                  1313.352
  ===> Total WRF-GC                       1525.801
 max optd  1.9364301E+31
 max taucldi  0.2984399    
 max taucldw  3.8807647E-04
 Switching is not necessary as we are already
 in the right domain!
 GIGC_Chunk_Run: Running for in-PET grid #           1
 GIGC_Chunk_Run: Received new grid IM, JM, LM =          15           9
          49
 =================================================
 W R F - G C   T I M E R S
    Domain           1 (Units: s)
 =================================================
  => Coupler Component                       3.051
   -- Physics & Parameterization             0.698
   -- Diagnostics Out                        0.000
  => GEOS-Chem Column                      210.504
  ===> Total Chemistry                     213.555
  => WRF                                  1331.451
  ===> Total WRF-GC                       1545.006
 HOURLY EMISSIONS UPDATE TIME    21600.0       0.0
mediation_integrate: med_read_wrf_chem_emissions: Read emissions for time 2018-01-01_06:00:00
 max optd  1.9364301E+31
 max taucldi  0.2835101    
 max taucldw  4.0492057E-04
 Switching is not necessary as we are already
 in the right domain!
 GIGC_Chunk_Run: Running for in-PET grid #           1
 GIGC_Chunk_Run: Received new grid IM, JM, LM =          15           9
          49
 =================================================
 W R F - G C   T I M E R S
    Domain           1 (Units: s)
 =================================================
  => Coupler Component                       3.090
   -- Physics & Parameterization             0.708
   -- Diagnostics Out                        0.000
  => GEOS-Chem Column                      211.578
  ===> Total Chemistry                     214.668
  => WRF                                  1790.109
  ===> Total WRF-GC                       2004.777
 max optd  1.9364301E+31
 max taucldi  0.2702530    
 max taucldw  4.1989656E-04
 Switching is not necessary as we are already
 in the right domain!
 GIGC_Chunk_Run: Running for in-PET grid #           1
 GIGC_Chunk_Run: Received new grid IM, JM, LM =          15           9
          49
 =================================================
 W R F - G C   T I M E R S
    Domain           1 (Units: s)
 =================================================
  => Coupler Component                       3.131
   -- Physics & Parameterization             0.717
   -- Diagnostics Out                        0.000
  => GEOS-Chem Column                      212.646
  ===> Total Chemistry                     215.778
  => WRF                                  1808.228
  ===> Total WRF-GC                       2024.005
 max optd  1.9364301E+31
 max taucldi  0.2635677    
 max taucldw  4.3212407E-04
 Switching is not necessary as we are already
 in the right domain!
 GIGC_Chunk_Run: Running for in-PET grid #           1
 GIGC_Chunk_Run: Received new grid IM, JM, LM =          15           9
          49
 =================================================
 W R F - G C   T I M E R S
    Domain           1 (Units: s)
 =================================================
  => Coupler Component                       3.169
   -- Physics & Parameterization             0.727
   -- Diagnostics Out                        0.000
  => GEOS-Chem Column                      213.720
  ===> Total Chemistry                     216.890
  => WRF                                  1826.480
  ===> Total WRF-GC                       2043.370
 max optd  1.9364301E+31
 max taucldi  0.2667741    
 max taucldw  4.4624828E-04
 Switching is not necessary as we are already
 in the right domain!
 GIGC_Chunk_Run: Running for in-PET grid #           1
 GIGC_Chunk_Run: Received new grid IM, JM, LM =          15           9
          49
 =================================================
 W R F - G C   T I M E R S
    Domain           1 (Units: s)
 =================================================
  => Coupler Component                       3.215
[...]
  => GEOS-Chem Column                      261.500
  ===> Total Chemistry                     266.607
  => WRF                                  2643.947
  ===> Total WRF-GC                       2910.554
 HOURLY EMISSIONS UPDATE TIME    36000.0       0.0
mediation_integrate: med_read_wrf_chem_emissions: Read emissions for time 2018-01-01_10:00:00
 max optd  1.9364301E+31
 max taucldi  3.6394704E-04
 max taucldw  9.7142480E-04
 Switching is not necessary as we are already
 in the right domain!
 GIGC_Chunk_Run: Running for in-PET grid #           1
 GIGC_Chunk_Run: Received new grid IM, JM, LM =          15           9
          49
 =================================================
 W R F - G C   T I M E R S
    Domain           1 (Units: s)
 =================================================
  => Coupler Component                       5.149
   -- Physics & Parameterization             1.171
   -- Diagnostics Out                        0.000
  => GEOS-Chem Column                      262.565
  ===> Total Chemistry                     267.714
  => WRF                                  2662.166
  ===> Total WRF-GC                       2929.880
 max optd  1.9364301E+31
 max taucldi  3.6720521E-04
 max taucldw  9.7064645E-04
 Switching is not necessary as we are already
 in the right domain!
 GIGC_Chunk_Run: Running for in-PET grid #           1
 GIGC_Chunk_Run: Received new grid IM, JM, LM =          15           9
          49
 =================================================
 W R F - G C   T I M E R S
    Domain           1 (Units: s)
 =================================================
  => Coupler Component                       5.191
   -- Physics & Parameterization             1.180
   -- Diagnostics Out                        0.000
  => GEOS-Chem Column                      263.631
  ===> Total Chemistry                     268.823
  => WRF                                  2680.303
  ===> Total WRF-GC                       2949.126
 max optd  1.9364301E+31
 max taucldi  3.7028402E-04
 max taucldw  9.6934481E-04
 Switching is not necessary as we are already
 in the right domain!
 GIGC_Chunk_Run: Running for in-PET grid #           1
 GIGC_Chunk_Run: Received new grid IM, JM, LM =          15           9
          49
 =================================================
 W R F - G C   T I M E R S
    Domain           1 (Units: s)
 =================================================
  => Coupler Component                       5.234
   -- Physics & Parameterization             1.190
   -- Diagnostics Out                        0.000
  => GEOS-Chem Column                      264.697
  ===> Total Chemistry                     269.931
  => WRF                                  2698.433
  ===> Total WRF-GC                       2968.363
 max optd  1.9364301E+31
 max taucldi  3.7320808E-04
 max taucldw  9.6942013E-04
 Switching is not necessary as we are already
 in the right domain!
 GIGC_Chunk_Run: Running for in-PET grid #           1
 GIGC_Chunk_Run: Received new grid IM, JM, LM =          15           9
          49
 =================================================
 W R F - G C   T I M E R S
    Domain           1 (Units: s)
 =================================================
  => Coupler Component                       5.275
   -- Physics & Parameterization             1.199
   -- Diagnostics Out                        0.000
  => GEOS-Chem Column                      265.755
  ===> Total Chemistry                     271.030
  => WRF                                  2716.657
  ===> Total WRF-GC                       2987.688
 max optd  1.9364301E+31
 max taucldi  3.7856420E-04
 max taucldw  9.8031608E-04
 Switching is not necessary as we are already
 in the right domain!
 GIGC_Chunk_Run: Running for in-PET grid #           1
 GIGC_Chunk_Run: Received new grid IM, JM, LM =          15           9
          49
 =================================================
 W R F - G C   T I M E R S
    Domain           1 (Units: s)
 =================================================
  => Coupler Component                       5.322
   -- Physics & Parameterization             1.209
   -- Diagnostics Out                        0.000
  => GEOS-Chem Column                      266.806
  ===> Total Chemistry                     272.128
  => WRF                                  2734.826
  ===> Total WRF-GC                       3006.955
 max optd  1.9364301E+31
 max taucldi  3.8467400E-04
 max taucldw  9.8738703E-04
 Switching is not necessary as we are already
 in the right domain!
 GIGC_Chunk_Run: Running for in-PET grid #           1
 GIGC_Chunk_Run: Received new grid IM, JM, LM =          15           9
          49
 =================================================
 W R F - G C   T I M E R S
    Domain           1 (Units: s)
 =================================================
  => Coupler Component                       5.367
   -- Physics & Parameterization             1.218
   -- Diagnostics Out                        0.000
  => GEOS-Chem Column                      267.860
  ===> Total Chemistry                     273.226
  => WRF                                  2752.932
  ===> Total WRF-GC                       3026.158
 max optd  1.9364301E+31
 max taucldi  3.8899051E-04
 max taucldw  9.8981604E-04
 Switching is not necessary as we are already
 in the right domain!
 GIGC_Chunk_Run: Running for in-PET grid #           1
 GIGC_Chunk_Run: Received new grid IM, JM, LM =          15           9
          49
 =================================================
 W R F - G C   T I M E R S
    Domain           1 (Units: s)
 =================================================
  => Coupler Component                       5.412
   -- Physics & Parameterization             1.228
   -- Diagnostics Out                        0.000
  => GEOS-Chem Column                      268.922
  ===> Total Chemistry                     274.334
  => WRF                                  2771.107
  ===> Total WRF-GC                       3045.441
 max optd  1.9364301E+31
 max taucldi  3.9139111E-04
 max taucldw  9.8737550E-04
 Switching is not necessary as we are already
 in the right domain!
 GIGC_Chunk_Run: Running for in-PET grid #           1
 GIGC_Chunk_Run: Received new grid IM, JM, LM =          15           9
          49
 =================================================
 W R F - G C   T I M E R S
    Domain           1 (Units: s)
 =================================================
  => Coupler Component                       5.459
   -- Physics & Parameterization             1.239
   -- Diagnostics Out                        0.000
  => GEOS-Chem Column                      269.967
  ===> Total Chemistry                     275.426
  => WRF                                  2789.250
  ===> Total WRF-GC                       3064.676
 max optd  1.9364301E+31
 max taucldi  3.9197694E-04
 max taucldw  9.8034018E-04
 Switching is not necessary as we are already
 in the right domain!
 GIGC_Chunk_Run: Running for in-PET grid #           1
 GIGC_Chunk_Run: Received new grid IM, JM, LM =          15           9
          49
 =================================================
 W R F - G C   T I M E R S
    Domain           1 (Units: s)
 =================================================
  => Coupler Component                       5.508
   -- Physics & Parameterization             1.248
   -- Diagnostics Out                        0.000
  => GEOS-Chem Column                      271.024
  ===> Total Chemistry                     276.532
  => WRF                                  2807.388
  ===> Total WRF-GC                       3083.920
 max optd  1.9364301E+31
 max taucldi  3.9103033E-04
 max taucldw  9.6946070E-04
 Switching is not necessary as we are already
 in the right domain!
 GIGC_Chunk_Run: Running for in-PET grid #           1
 GIGC_Chunk_Run: Received new grid IM, JM, LM =          15           9
          49
 =================================================
 W R F - G C   T I M E R S
    Domain           1 (Units: s)
 =================================================
  => Coupler Component                       5.556
   -- Physics & Parameterization             1.258
   -- Diagnostics Out                        0.000
  => GEOS-Chem Column                      272.081
  ===> Total Chemistry                     277.637
  => WRF                                  2825.586
  ===> Total WRF-GC                       3103.222
 max optd  1.9364301E+31
 max taucldi  3.8882281E-04
 max taucldw  9.6265390E-04
 Switching is not necessary as we are already
 in the right domain!
 GIGC_Chunk_Run: Running for in-PET grid #           1
 GIGC_Chunk_Run: Received new grid IM, JM, LM =          15           9
          49
 =================================================
 W R F - G C   T I M E R S
    Domain           1 (Units: s)
 =================================================
  => Coupler Component                       5.598
   -- Physics & Parameterization             1.268
   -- Diagnostics Out                        0.000
  => GEOS-Chem Column                      273.148
  ===> Total Chemistry                     278.746
  => WRF                                  2843.720
  ===> Total WRF-GC                       3122.467
 max optd  1.9364301E+31
 max taucldi  3.8612148E-04
 max taucldw  9.5592835E-04
 Switching is not necessary as we are already
 in the right domain!
 GIGC_Chunk_Run: Running for in-PET grid #           1
 GIGC_Chunk_Run: Received new grid IM, JM, LM =          15           9
          49
 =================================================
 W R F - G C   T I M E R S
    Domain           1 (Units: s)
 =================================================
  => Coupler Component                       5.642
   -- Physics & Parameterization             1.277
   -- Diagnostics Out                        0.000
  => GEOS-Chem Column                      274.206
  ===> Total Chemistry                     279.849
  => WRF                                  2861.906
  ===> Total WRF-GC                       3141.755
 HOURLY EMISSIONS UPDATE TIME    39600.0       0.0
mediation_integrate: med_read_wrf_chem_emissions: Read emissions for time 2018-01-01_11:00:00
 max optd  1.9364301E+31
 max taucldi  3.8564371E-04
 max taucldw  9.4726821E-04
 Switching is not necessary as we are already
 in the right domain!
 GIGC_Chunk_Run: Running for in-PET grid #           1
 GIGC_Chunk_Run: Received new grid IM, JM, LM =          15           9
          49
 =================================================
 W R F - G C   T I M E R S
    Domain           1 (Units: s)
 =================================================
  => Coupler Component                       5.684
   -- Physics & Parameterization             1.287
   -- Diagnostics Out                        0.000
  => GEOS-Chem Column                      275.269
  ===> Total Chemistry                     280.953
  => WRF                                  2880.084
  ===> Total WRF-GC                       3161.037
 max optd  1.9364301E+31
 max taucldi  3.8419926E-04
 max taucldw  9.3635806E-04
 Switching is not necessary as we are already
 in the right domain!
 GIGC_Chunk_Run: Running for in-PET grid #           1
 GIGC_Chunk_Run: Received new grid IM, JM, LM =          15           9
          49
 =================================================
 W R F - G C   T I M E R S
    Domain           1 (Units: s)
 =================================================
  => Coupler Component                       5.732
   -- Physics & Parameterization             1.297
   -- Diagnostics Out                        0.000
  => GEOS-Chem Column                      276.309
  ===> Total Chemistry                     282.041
  => WRF                                  2898.195
  ===> Total WRF-GC                       3180.236
 max optd  1.9364301E+31
 max taucldi  3.8273333E-04
 max taucldw  9.2333171E-04
 Switching is not necessary as we are already
 in the right domain!
 GIGC_Chunk_Run: Running for in-PET grid #           1
 GIGC_Chunk_Run: Received new grid IM, JM, LM =          15           9
          49
 =================================================
 W R F - G C   T I M E R S
    Domain           1 (Units: s)
 =================================================
  => Coupler Component                       5.779
   -- Physics & Parameterization             1.306
   -- Diagnostics Out                        0.000
  => GEOS-Chem Column                      277.348
  ===> Total Chemistry                     283.127
  => WRF                                  2916.438
  ===> Total WRF-GC                       3199.565
 max optd  1.9364301E+31
 max taucldi  3.8334136E-04
 max taucldw  9.0881280E-04
 Switching is not necessary as we are already
 in the right domain!
 GIGC_Chunk_Run: Running for in-PET grid #           1
 GIGC_Chunk_Run: Received new grid IM, JM, LM =          15           9
          49
 =================================================
 W R F - G C   T I M E R S
    Domain           1 (Units: s)
 =================================================
  => Coupler Component                       5.823
   -- Physics & Parameterization             1.316
   -- Diagnostics Out                        0.000
  => GEOS-Chem Column                      278.418
  ===> Total Chemistry                     284.241
  => WRF                                  2934.726
  ===> Total WRF-GC                       3218.967
 max optd  1.9364301E+31
 max taucldi  3.8270678E-04
 max taucldw  8.9936733E-04
 Switching is not necessary as we are already
 in the right domain!
 GIGC_Chunk_Run: Running for in-PET grid #           1
 GIGC_Chunk_Run: Received new grid IM, JM, LM =          15           9
          49
 =================================================
 W R F - G C   T I M E R S
    Domain           1 (Units: s)
 =================================================
  => Coupler Component                       5.866
   -- Physics & Parameterization             1.325
   -- Diagnostics Out                        0.000
  => GEOS-Chem Column                      279.478
  ===> Total Chemistry                     285.344
  => WRF                                  2953.125
  ===> Total WRF-GC                       3238.469
 max optd  1.9364301E+31
 max taucldi  3.8094458E-04
 max taucldw  8.8823627E-04
 Switching is not necessary as we are already
 in the right domain!
 GIGC_Chunk_Run: Running for in-PET grid #           1
 GIGC_Chunk_Run: Received new grid IM, JM, LM =          15           9
          49
 =================================================
 W R F - G C   T I M E R S
    Domain           1 (Units: s)
 =================================================
  => Coupler Component                       5.910
   -- Physics & Parameterization             1.335
   -- Diagnostics Out                        0.000
  => GEOS-Chem Column                      280.527
  ===> Total Chemistry                     286.437
  => WRF                                  2971.513
  ===> Total WRF-GC                       3257.951
 max optd  1.9364301E+31
 max taucldi  3.7818580E-04
 max taucldw  8.7488536E-04
 Switching is not necessary as we are already
 in the right domain!
 GIGC_Chunk_Run: Running for in-PET grid #           1
 GIGC_Chunk_Run: Received new grid IM, JM, LM =          15           9
          49
 =================================================
 W R F - G C   T I M E R S
    Domain           1 (Units: s)
 =================================================
  => Coupler Component                       5.951
   -- Physics & Parameterization             1.344
   -- Diagnostics Out                        0.000
  => GEOS-Chem Column                      281.583
  ===> Total Chemistry                     287.534
  => WRF                                  2990.052
  ===> Total WRF-GC                       3277.585
 max optd  1.9364301E+31
 max taucldi  3.7469264E-04
 max taucldw  8.6003332E-04
 Switching is not necessary as we are already
 in the right domain!
 GIGC_Chunk_Run: Running for in-PET grid #           1
 GIGC_Chunk_Run: Received new grid IM, JM, LM =          15           9
          49
 =================================================
 W R F - G C   T I M E R S
    Domain           1 (Units: s)
 =================================================
  => Coupler Component                       5.992
   -- Physics & Parameterization             1.354
   -- Diagnostics Out                        0.000
  => GEOS-Chem Column                      282.624
  ===> Total Chemistry                     288.616
  => WRF                                  3008.629
  ===> Total WRF-GC                       3297.245
 max optd  1.9364301E+31
 max taucldi  3.7084302E-04
 max taucldw  8.4456231E-04
 Switching is not necessary as we are already
 in the right domain!
 GIGC_Chunk_Run: Running for in-PET grid #           1
 GIGC_Chunk_Run: Received new grid IM, JM, LM =          15           9
          49
 =================================================
 W R F - G C   T I M E R S
    Domain           1 (Units: s)
 =================================================
  => Coupler Component                       6.038
   -- Physics & Parameterization             1.364
   -- Diagnostics Out                        0.000
  => GEOS-Chem Column                      283.665
  ===> Total Chemistry                     289.704
  => WRF                                  3027.304
  ===> Total WRF-GC                       3317.008
 max optd  1.9364301E+31
 max taucldi  3.6695795E-04
 max taucldw  8.2919397E-04
 Switching is not necessary as we are already
 in the right domain!
 GIGC_Chunk_Run: Running for in-PET grid #           1
 GIGC_Chunk_Run: Received new grid IM, JM, LM =          15           9
          49
 =================================================
 W R F - G C   T I M E R S
    Domain           1 (Units: s)
 =================================================
  => Coupler Component                       6.083
   -- Physics & Parameterization             1.373
   -- Diagnostics Out                        0.000
  => GEOS-Chem Column                      284.711
  ===> Total Chemistry                     290.794
  => WRF                                  3046.218
  ===> Total WRF-GC                       3337.012
 max optd  1.9364301E+31
 max taucldi  3.6334986E-04
 max taucldw  8.1458408E-04
 Switching is not necessary as we are already
 in the right domain!
 GIGC_Chunk_Run: Running for in-PET grid #           1
 GIGC_Chunk_Run: Received new grid IM, JM, LM =          15           9
          49
 =================================================
 W R F - G C   T I M E R S
    Domain           1 (Units: s)
 =================================================
  => Coupler Component                       6.120
   -- Physics & Parameterization             1.383
   -- Diagnostics Out                        0.000
  => GEOS-Chem Column                      285.773
  ===> Total Chemistry                     291.893
  => WRF                                  3065.025
  ===> Total WRF-GC                       3356.918
 max optd  1.9364301E+31
 max taucldi  3.6032530E-04
 max taucldw  8.1008254E-04
 Switching is not necessary as we are already
 in the right domain!
 GIGC_Chunk_Run: Running for in-PET grid #           1
 GIGC_Chunk_Run: Received new grid IM, JM, LM =          15           9
          49
 =================================================
 W R F - G C   T I M E R S
    Domain           1 (Units: s)
 =================================================
  => Coupler Component                       6.158
   -- Physics & Parameterization             1.393
   -- Diagnostics Out                        0.000
  => GEOS-Chem Column                      286.824
  ===> Total Chemistry                     292.982
  => WRF                                  3083.763
  ===> Total WRF-GC                       3376.745
d01 2018-01-01_12:00:00 wrf: SUCCESS COMPLETE WRF
