taskid: 2079 hostname: ip-172-31-7-64
Quilting with   1 groups of   0 I/O tasks.
 Ntasks in X           64 , ntasks in Y           72
--- WARNING: traj_opt is zero, but num_traj is not zero; setting num_traj to zero.
--- NOTE: sst_update is 0, setting io_form_auxinput4 = 0 and auxinput4_interval = 0 for all domains
--- NOTE: grid_fdda is 0 for domain      1, setting gfdda interval and ending time to 0 for that domain.
--- NOTE: both grid_sfdda and pxlsm_soil_nudge are 0 for domain      1, setting sgfdda interval and ending time to 0 for that domain.
--- NOTE: obs_nudge_opt is 0 for domain      1, setting obs nudging interval and ending time to 0 for that domain.
--- NOTE: bl_pbl_physics /= 4, implies mfshconv must be 0, resetting
Need MYNN PBL for icloud_bl = 1, resetting to 0
*************************************
No physics suite selected.
Physics options will be used directly from the namelist.
*************************************
--- NOTE: RRTMG radiation is in use, setting:  levsiz=59, alevsiz=12, no_src_types=6
--- NOTE: num_soil_layers has been set to      4
WRF V3.9.1.1 MODEL
 *************************************
 Parent domain
 ids,ide,jds,jde            1         950           1         650
 ims,ime,jms,jme          455         482         283         305
 ips,ipe,jps,jpe          462         475         290         298
 *************************************
DYNAMICS OPTION: Eulerian Mass Coordinate
   alloc_space_field: domain            1 ,              197508740  bytes allocated
  med_initialdata_input: calling input_input
Max map factor in domain 1 =  1.40. Scale the dt in the model accordingly.
INPUT LandUse = "USGS"
 LANDUSE TYPE = "USGS" FOUND          33  CATEGORIES           2  SEASONS WATER CATEGORY =           16  SNOW CATEGORY =           24
INITIALIZE THREE Noah LSM RELATED TABLES
*****************************************************************
  __          _______  ______       _____  _____ _    _ _____
  \ \        / /  __ \|  ____|     / ____|/ ____| |  | |  __ \
   \ \  /\  / /| |__) | |__ ______| |  __| |    | |__| | |__) |
    \ \/  \/ / |  _  /|  __|______| | |_ | |    |  __  |  ___/
     \  /\  /  | | \ \| |         | |__| | |____| |  | | |
      \/  \/   |_|  \_\_|          \_____|\_____|_|  |_|_|
*****************************************************************
         WRF-GC MODEL, VERSION 1811.11 - WRF BINDINGS
 For errors, suggestions & feedback email linhaipeng@pku.edu.cn
*****************************************************************
    This is domain            1
 ### GIGC_Stateful_Mod: Root CPU, after READ_INPUT_FILE
  Linoz Data:  O3 climatology :                  z*=10, 12, ..., 58                             2.700E-08 1.083E-05
  Linoz Data:  Temperature climatology :         z*=10, 12, ..., 58                             1.859E+02 2.904E+02
  Linoz Data:  Column O3 above box climalology : z*=10, 12, ..., 58                             7.538E-02 3.770E+02
  Linoz Data:  P-L O3 climatology (mr/s):        z*=10, 12, ..., 58                            -1.590E-10 2.835E-11
  Linoz Data:  d(P-L)/dO3 (1/s) :                z*=10, 12, ..., 58                            -8.386E-04 7.556E-09
  Linoz Data:  d(P-L)/dT (mr/K) :                z*=10, 12, ..., 58                            -5.742E-12 4.615E-14
  Linoz Data:  d(P-L)/d(column O3) (mr/DU) :     z*=10, 12, ..., 58                            -1.921E-12 5.038E-10
 ### GIGC_Stateful_Mod: Root CPU, after LINOZ_READ
 %%%%%%%%% GIGC IN-PET GRID SWITCHING HACKS %%%%%%%%%
     (Not very) Proudly brought to you by hplin      
 Some debug information:
 ID:           1
 IM, JM, LM:          14           9          49  will be set as PAR
 Allocs: CMN T GC F
 RC at entry-point:           0
 %%%%%%%%%%%%%%%%%%%%%%%%%%%%%%%%%%%%%%%%%%%%%%%%%%%%
 No need to switch HcoState for ID           1
 Exit RC:            0
 %%%%%%%%%    FINISHED GIGC_Switch_Dims    %%%%%%%%%
 GIGC_Chunk_Init: Received new grid IM, JM, LM =          14           9
          49
     ### GIGC_INIT_SIMULATION: after Input_Opt% setups
     ### GIGC_INIT_SIMULATION: after GC_Init_All
     ### GIGC_INIT_SIMULATION: after GC_Init_Extra
     ### GIGC_INIT_SIMULATION: after INIT_FJX
 # GIGC_CHUNK_MOD: after SV save, ID =           1
 WRFGC chemics_init: Following information regarding Input_Opt% (for all doms)
 After domain           1
 HPC:  T
 LPRT:  F
 DoConv:  T
 DoDryDep:  T
 DoEmis:  T
 DoChem:  T
 DoTurb:  T
 DoWetDep:  T

 tropopause_init: DONE intialized domain            1

 mediation_integrate: med_read_wrf_chem_emissions: Open file wrfchemi_00z_d01
 HOURLY EMISSIONS UPDATE TIME        0.0       0.0
mediation_integrate: med_read_wrf_chem_emissions: Read emissions for time 2018-01-01_00:00:00
open_aux_u : error opening wrffirechemi_d01_2018-01-01_00:00:00 for reading. 100
open_aux_u : error opening wrfchemi_gocart_bg_d01 for reading. 100
d01 2018-01-01_00:00:00 Input data processed for aux input   8 for domain   1
open_aux_u : error opening wrfchemv_d01 for reading. 100
 Tile Strategy is not specified. Assuming 1D-Y
WRF TILE   1 IS    462 IE    475 JS    290 JE    298
WRF NUMBER OF TILES =   1
 max optd  3.7376920E+27
 max taucldi  3.7521235E+27
 max taucldw  0.0000000E+00
 =================================================
 W R F - G C   T I M E R S
    Domain           1 (Units: s)
 =================================================
  => Coupler Component                       0.030
   -- Physics & Parameterization             0.001
   -- Diagnostics Out                        0.000
  => GEOS-Chem Column                        0.000
  ===> Total Chemistry                       0.030
  => WRF                                     0.000
  ===> Total WRF-GC                          0.030
 max optd  3.7376920E+27
 max taucldi  3.7521235E+27
 max taucldw  1.0000006E-14
 %%%%%%%%% GIGC IN-PET GRID SWITCHING HACKS %%%%%%%%%
     (Not very) Proudly brought to you by hplin      
 Some debug information:
 ID:           1
 IM, JM, LM:          14           9          49  will be set as PAR
 Allocs: CMN T GC T
 RC at entry-point:           0
 %%%%%%%%%%%%%%%%%%%%%%%%%%%%%%%%%%%%%%%%%%%%%%%%%%%%
 No need to switch HcoState for ID           1
 Debug HcoState nSpc, NX, NY, NZ         163          14           9          49
 Exit RC:            0
 %%%%%%%%%    FINISHED GIGC_Switch_Dims    %%%%%%%%%
 GIGC_Chunk_Run: Running for in-PET grid #           1
 GIGC_Chunk_Run: Received new grid IM, JM, LM =          14           9
          49
HEMCO: Opening /fsx/HEMCO/BIOFUEL/v2014-07/biofuel.geos.4x5.nc
HEMCO: Opening /fsx/HEMCO/BROMINE/v2015-02/Bromocarb_Liang2010.nc
HEMCO: Opening /fsx/HEMCO/ACET/v2014-07/ACET_seawater.generic.1x1.nc
HEMCO: Opening /fsx/HEMCO/SOILNOX/v2014-07/DepReservoirDefault.nc
HEMCO: Opening /fsx/HEMCO/SOILNOX/v2014-07/soilNOx.landtype.generic.025x025.1L.nc
HEMCO: Opening /fsx/HEMCO/SOILNOX/v2014-07/soilNOx.climate.generic.05x05.nc
HEMCO: Opening /fsx/HEMCO/DUST_DEAD/v2014-07/dst_tibds.geos.4x5.nc
HEMCO: Opening /fsx/HEMCO/DUST_DEAD/v2014-07/GOCART_src_fn.geos.4x5.nc
HEMCO: Opening /fsx/HEMCO/MEGAN/v2018-05/MEGAN2.1_EF.geos.025x03125.nc
HEMCO: Opening /fsx/HEMCO/MEGAN/v2017-07/CLM4_PFT.geos.025x03125.nc
HEMCO: Opening /fsx/HEMCO/TIMEZONES/v2015-02/timezones_voronoi_1x1.nc
HEMCO: Opening /fsx/HEMCO/STRAT/v2015-01/Bry/GEOSCCM_Bry.200701.day.nc
HEMCO: Opening /fsx/HEMCO/STRAT/v2015-01/Bry/GEOSCCM_Bry.200701.night.nc
HEMCO: Opening /fsx/HEMCO/OMOC/v2018-01/OMOC.DJF.01x01.nc
HEMCO: Opening /fsx/HEMCO/OMOC/v2018-01/OMOC.MAM.01x01.nc
HEMCO: Opening /fsx/HEMCO/OMOC/v2018-01/OMOC.JJA.01x01.nc
HEMCO: Opening /fsx/HEMCO/OMOC/v2018-01/OMOC.SON.01x01.nc
HEMCO: Opening /fsx/HEMCO/AnnualScalar/v2014-07/AnnualScalar.geos.1x1.nc
HEMCO: Opening /fsx/HEMCO/EDGARv42/v2015-02/NO/EDGAR_hourly_NOxScal.nc
HEMCO: Opening /fsx/HEMCO/MASKS/v2018-09/EMEP_mask.geos.1x1.20151222.nc
HEMCO: Opening /fsx/HEMCO/MASKS/v2018-09/Canada_mask.geos.1x1.nc
HEMCO: Opening /fsx/HEMCO/MASKS/v2018-09/SE_Asia_mask.generic.1x1.nc
HEMCO: Opening /fsx/HEMCO/MASKS/v2018-09/MIX_Asia_mask.generic.025x025.nc
HEMCO: Opening /fsx/HEMCO/MASKS/v2018-09/CONUS_Mask.01x01.nc
HEMCO: Opening /fsx/HEMCO/MASKS/v2018-09/AF_LANDMASK.geos.05x0666.global.nc
HEMCO: Opening /fsx/HEMCO/MASKS/v2018-09/China_mask.generic.1x1.nc
HEMCO: Opening /fsx/HEMCO/MASKS/v2018-09/India_mask.generic.1x1.nc
HEMCO: Opening /fsx/HEMCO/AnnualScalar/v2014-07/AnnualScalar.geos.1x1.nc
HEMCO: Opening /fsx/HEMCO/NH3/v2014-07/NH3_geos.4x5.nc
HEMCO: Opening /fsx/HEMCO/NH3/v2018-04/NH3_Arctic_seabirds.nc
HEMCO: Opening /fsx/HEMCO/CEDS/v2018-08/2014/NO-em-anthro_CMIP_CEDS_2014.nc
HEMCO: Opening /fsx/HEMCO/CEDS/v2018-08/2014/CO-em-anthro_CMIP_CEDS_2014.nc
HEMCO: Opening /fsx/HEMCO/CEDS/v2018-08/2014/SO2-em-anthro_CMIP_CEDS_2014.nc
HEMCO: Opening /fsx/HEMCO/CEDS/v2018-08/2014/NH3-em-anthro_CMIP_CEDS_2014.nc
HEMCO: Opening /fsx/HEMCO/CEDS/v2018-08/2014/BC-em-anthro_CMIP_CEDS_2014.nc
HEMCO: Opening /fsx/HEMCO/CEDS/v2018-08/2014/OC-em-anthro_CMIP_CEDS_2014.nc
HEMCO: Opening /fsx/HEMCO/CEDS/v2018-08/2014/EOH-em-anthro_CMIP_CEDS_2014.nc
HEMCO: Opening /fsx/HEMCO/CEDS/v2018-08/2014/C2H6-em-anthro_CMIP_CEDS_2014.nc
HEMCO: Opening /fsx/HEMCO/CEDS/v2018-08/2014/C3H8-em-anthro_CMIP_CEDS_2014.nc
HEMCO: Opening /fsx/HEMCO/CEDS/v2018-08/2014/ALK4_butanes-em-anthro_CMIP_CEDS_2014.nc
HEMCO: Opening /fsx/HEMCO/CEDS/v2018-08/2014/ALK4_pentanes-em-anthro_CMIP_CEDS_2014.nc
HEMCO: Opening /fsx/HEMCO/CEDS/v2018-08/2014/ALK4_hexanes-em-anthro_CMIP_CEDS_2014.nc
HEMCO: Opening /fsx/HEMCO/CEDS/v2018-08/2014/PRPE-em-anthro_CMIP_CEDS_2014.nc
HEMCO: Opening /fsx/HEMCO/CEDS/v2018-08/2014/BENZ-em-anthro_CMIP_CEDS_2014.nc
HEMCO: Opening /fsx/HEMCO/CEDS/v2018-08/2014/TOLU-em-anthro_CMIP_CEDS_2014.nc
HEMCO: Opening /fsx/HEMCO/CEDS/v2018-08/2014/XYLE-em-anthro_CMIP_CEDS_2014.nc
HEMCO: Opening /fsx/HEMCO/CEDS/v2018-08/2014/CH2O-em-anthro_CMIP_CEDS_2014.nc
HEMCO: Opening /fsx/HEMCO/CEDS/v2018-08/2014/ALD2-em-anthro_CMIP_CEDS_2014.nc
HEMCO: Opening /fsx/HEMCO/CEDS/v2018-08/2014/MEK-em-anthro_CMIP_CEDS_2014.nc
HEMCO: Opening /fsx/HEMCO/CEDS/v2018-08/2014/HCOOH-em-anthro_CMIP_CEDS_2014.nc
HEMCO: Opening /fsx/HEMCO/C2H6_2010/v2017-05/C2H6_global_anth_biof.201001.nc
HEMCO: Opening /fsx/HEMCO/NEI2011/v2017-02-MM/01/NEI11_0.1x0.1_201101_monmean.nc
HEMCO: Opening /fsx/HEMCO/NEI2011/v2017-02-MM/01/NEI11_0.1x0.1_201101_monmean_egu.nc
HEMCO: Opening /fsx/HEMCO/NEI2011/v2017-02-MM/01/NEI11_0.1x0.1_201101_monmean_egupk.nc
HEMCO: Opening /fsx/HEMCO/NEI2011/v2017-02-MM/01/NEI11_0.1x0.1_201101_monmean_oilgas.nc
HEMCO: Opening /fsx/HEMCO/NEI2011/v2017-02-MM/01/NEI11_0.1x0.1_201101_monmean_othpt.nc
HEMCO: Opening /fsx/HEMCO/NEI2011/v2017-02-MM/01/NEI11_0.1x0.1_201101_monmean_ptnonipm.nc
HEMCO: Opening /fsx/HEMCO/IODINE/v2017-09/CH3I_monthly_emissions_Ordonez_2012_COARDS.nc
HEMCO: Opening /fsx/HEMCO/IODINE/v2017-09/CH2I2_monthly_emissions_Ordonez_2012_COARDS.nc
HEMCO: Opening /fsx/HEMCO/IODINE/v2017-09/CH2ICl_monthly_emissions_Ordonez_2012_COARDS.nc
HEMCO: Opening /fsx/HEMCO/IODINE/v2017-09/CH2IBr_monthly_emissions_Ordonez_2012_COARDS.nc
HEMCO: Opening /fsx/HEMCO/CEDS/v2018-08/2014/CO-em-anthro_CMIP_CEDS_2014.nc
HEMCO: Opening /fsx/HEMCO/CEDS/v2018-08/2014/SO2-em-anthro_CMIP_CEDS_2014.nc
HEMCO: Opening /fsx/HEMCO/CEDS/v2018-08/2014/NH3-em-anthro_CMIP_CEDS_2014.nc
HEMCO: Opening /fsx/HEMCO/CEDS/v2018-08/2014/BC-em-anthro_CMIP_CEDS_2014.nc
HEMCO: Opening /fsx/HEMCO/CEDS/v2018-08/2014/OC-em-anthro_CMIP_CEDS_2014.nc
HEMCO: Opening /fsx/HEMCO/CEDS/v2018-08/2014/EOH-em-anthro_CMIP_CEDS_2014.nc
HEMCO: Opening /fsx/HEMCO/CEDS/v2018-08/2014/C2H6-em-anthro_CMIP_CEDS_2014.nc
HEMCO: Opening /fsx/HEMCO/CEDS/v2018-08/2014/C3H8-em-anthro_CMIP_CEDS_2014.nc
HEMCO: Opening /fsx/HEMCO/CEDS/v2018-08/2014/ALK4_butanes-em-anthro_CMIP_CEDS_2014.nc
HEMCO: Opening /fsx/HEMCO/CEDS/v2018-08/2014/ALK4_pentanes-em-anthro_CMIP_CEDS_2014.nc
HEMCO: Opening /fsx/HEMCO/CEDS/v2018-08/2014/ALK4_hexanes-em-anthro_CMIP_CEDS_2014.nc
HEMCO: Opening /fsx/HEMCO/CEDS/v2018-08/2014/PRPE-em-anthro_CMIP_CEDS_2014.nc
HEMCO: Opening /fsx/HEMCO/CEDS/v2018-08/2014/BENZ-em-anthro_CMIP_CEDS_2014.nc
HEMCO: Opening /fsx/HEMCO/CEDS/v2018-08/2014/TOLU-em-anthro_CMIP_CEDS_2014.nc
HEMCO: Opening /fsx/HEMCO/CEDS/v2018-08/2014/XYLE-em-anthro_CMIP_CEDS_2014.nc
HEMCO: Opening /fsx/HEMCO/CEDS/v2018-08/2014/CH2O-em-anthro_CMIP_CEDS_2014.nc
HEMCO: Opening /fsx/HEMCO/CEDS/v2018-08/2014/ALD2-em-anthro_CMIP_CEDS_2014.nc
HEMCO: Opening /fsx/HEMCO/CEDS/v2018-08/2014/MEK-em-anthro_CMIP_CEDS_2014.nc
HEMCO: Opening /fsx/HEMCO/CEDS/v2018-08/2014/HCOOH-em-anthro_CMIP_CEDS_2014.nc
HEMCO: Opening /fsx/HEMCO/CEDS/v2018-08/2014/NO-em-anthro_CMIP_CEDS_2014.nc
HEMCO: Opening /fsx/HEMCO/AEIC/v2015-01/AEIC.47L.gen.1x1.nc
HEMCO: Opening /fsx/HEMCO/ALD2/v2017-03/resp.geos.2x25.nc
HEMCO: Opening /fsx/HEMCO/DMS/v2015-07/DMS_lana.geos.1x1.nc
HEMCO: Opening /fsx/HEMCO/ALD2/v2017-03/ALD2_seawater.geos.2x25.nc
HEMCO: Opening /fsx/HEMCO/DUST_DEAD/v2014-07/dst_tvbds.geos.4x5.nc
HEMCO: Opening /fsx/HEMCO/DUST_DEAD/v2018-04/PM25FINE_ECLIPSE_2015.geos.2x25.nc
HEMCO: Opening /fsx/HEMCO/SOA/v2014-07/NVOC.geos.1x1.nc
HEMCO: Opening /fsx/HEMCO/GFED4/v2015-10/2016/GFED4_gen.025x025.201601.nc
HEMCO: Opening /fsx/HEMCO/UVALBEDO/v2015-03/uvalbedo.geos.2x25.nc
HEMCO: Opening /fsx/HEMCO/GMI/v2015-02/gmi.clim.ACET.geos5.2x25.nc
HEMCO: Opening /fsx/HEMCO/GMI/v2015-02/gmi.clim.ACTA.geos5.2x25.nc
HEMCO: Opening /fsx/HEMCO/GMI/v2015-02/gmi.clim.ALD2.geos5.2x25.nc
HEMCO: Opening /fsx/HEMCO/GMI/v2015-02/gmi.clim.ALK4.geos5.2x25.nc
HEMCO: Opening /fsx/HEMCO/GMI/v2015-02/gmi.clim.C2H6.geos5.2x25.nc
HEMCO: Opening /fsx/HEMCO/GMI/v2015-02/gmi.clim.C3H8.geos5.2x25.nc
HEMCO: Opening /fsx/HEMCO/GMI/v2015-02/gmi.clim.CCl4.geos5.2x25.nc
HEMCO: Opening /fsx/HEMCO/GMI/v2015-02/gmi.clim.CF2Cl2.geos5.2x25.nc
HEMCO: Opening /fsx/HEMCO/GMI/v2015-02/gmi.clim.CF2ClBr.geos5.2x25.nc
HEMCO: Opening /fsx/HEMCO/GMI/v2015-02/gmi.clim.CFC113.geos5.2x25.nc
HEMCO: Opening /fsx/HEMCO/GMI/v2015-02/gmi.clim.CFC114.geos5.2x25.nc
HEMCO: Opening /fsx/HEMCO/GMI/v2015-02/gmi.clim.CFC115.geos5.2x25.nc
HEMCO: Opening /fsx/HEMCO/GMI/v2015-02/gmi.clim.CFCl3.geos5.2x25.nc
HEMCO: Opening /fsx/HEMCO/GMI/v2015-02/gmi.clim.CH2O.geos5.2x25.nc
HEMCO: Opening /fsx/HEMCO/GMI/v2015-02/gmi.clim.CH3CCl3.geos5.2x25.nc
HEMCO: Opening /fsx/HEMCO/GMI/v2015-02/gmi.clim.CH3Cl.geos5.2x25.nc
HEMCO: Opening /fsx/HEMCO/GMI/v2015-02/gmi.clim.CH4.geos5.2x25.nc
HEMCO: Opening /fsx/HEMCO/GMI/v2015-02/gmi.clim.CO.geos5.2x25.nc
HEMCO: Opening /fsx/HEMCO/GMI/v2015-02/gmi.clim.Cl.geos5.2x25.nc
HEMCO: Opening /fsx/HEMCO/GMI/v2015-02/gmi.clim.Cl2.geos5.2x25.nc
HEMCO: Opening /fsx/HEMCO/GMI/v2015-02/gmi.clim.Cl2O2.geos5.2x25.nc
HEMCO: Opening /fsx/HEMCO/GMI/v2015-02/gmi.clim.ClO.geos5.2x25.nc
HEMCO: Opening /fsx/HEMCO/GMI/v2015-02/gmi.clim.EOH.geos5.2x25.nc
HEMCO: Opening /fsx/HEMCO/GMI/v2015-02/gmi.clim.GLYC.geos5.2x25.nc
HEMCO: Opening /fsx/HEMCO/GMI/v2015-02/gmi.clim.GLYX.geos5.2x25.nc
HEMCO: Opening /fsx/HEMCO/GMI/v2015-02/gmi.clim.H2402.geos5.2x25.nc
HEMCO: Opening /fsx/HEMCO/GMI/v2015-02/gmi.clim.H2O.geos5.2x25.nc
HEMCO: Opening /fsx/HEMCO/GMI/v2015-02/gmi.clim.H2O2.geos5.2x25.nc
HEMCO: Opening /fsx/HEMCO/GMI/v2015-02/gmi.clim.HAC.geos5.2x25.nc
HEMCO: Opening /fsx/HEMCO/GMI/v2015-02/gmi.clim.HCFC141b.geos5.2x25.nc
HEMCO: Opening /fsx/HEMCO/GMI/v2015-02/gmi.clim.HCFC142b.geos5.2x25.nc
HEMCO: Opening /fsx/HEMCO/GMI/v2015-02/gmi.clim.HCFC22.geos5.2x25.nc
HEMCO: Opening /fsx/HEMCO/GMI/v2015-02/gmi.clim.HCOOH.geos5.2x25.20170108.nc
HEMCO: Opening /fsx/HEMCO/GMI/v2015-02/gmi.clim.HCl.geos5.2x25.nc
HEMCO: Opening /fsx/HEMCO/GMI/v2015-02/gmi.clim.HNO2.geos5.2x25.nc
HEMCO: Opening /fsx/HEMCO/GMI/v2015-02/gmi.clim.HNO3.geos5.2x25.nc
HEMCO: Opening /fsx/HEMCO/GMI/v2015-02/gmi.clim.HNO4.geos5.2x25.nc
HEMCO: Opening /fsx/HEMCO/GMI/v2015-02/gmi.clim.HOCl.geos5.2x25.nc
HEMCO: Opening /fsx/HEMCO/GMI/v2015-02/gmi.clim.ISN1.geos5.2x25.nc
HEMCO: Opening /fsx/HEMCO/GMI/v2015-02/gmi.clim.ISOP.geos5.2x25.nc
HEMCO: Opening /fsx/HEMCO/GMI/v2015-02/gmi.clim.MACR.geos5.2x25.nc
HEMCO: Opening /fsx/HEMCO/GMI/v2015-02/gmi.clim.MAP.geos5.2x25.nc
HEMCO: Opening /fsx/HEMCO/GMI/v2015-02/gmi.clim.MEK.geos5.2x25.nc
HEMCO: Opening /fsx/HEMCO/GMI/v2015-02/gmi.clim.MGLY.geos5.2x25.nc
HEMCO: Opening /fsx/HEMCO/GMI/v2015-02/gmi.clim.MP.geos5.2x25.nc
HEMCO: Opening /fsx/HEMCO/GMI/v2015-02/gmi.clim.MVK.geos5.2x25.nc
HEMCO: Opening /fsx/HEMCO/GMI/v2015-02/gmi.clim.N2O.geos5.2x25.nc
HEMCO: Opening /fsx/HEMCO/GMI/v2015-02/gmi.clim.N2O5.geos5.2x25.nc
HEMCO: Opening /fsx/HEMCO/GMI/v2015-02/gmi.clim.NO.geos5.2x25.nc
HEMCO: Opening /fsx/HEMCO/GMI/v2015-02/gmi.clim.NO2.geos5.2x25.nc
HEMCO: Opening /fsx/HEMCO/GMI/v2015-02/gmi.clim.NO3.geos5.2x25.nc
HEMCO: Opening /fsx/HEMCO/GMI/v2015-02/gmi.clim.O3.geos5.2x25.nc
HEMCO: Opening /fsx/HEMCO/GMI/v2015-02/gmi.clim.OClO.geos5.2x25.nc
HEMCO: Opening /fsx/HEMCO/GMI/v2015-02/gmi.clim.PAN.geos5.2x25.nc
HEMCO: Opening /fsx/HEMCO/GMI/v2015-02/gmi.clim.NPMN.geos5.2x25.nc
HEMCO: Opening /fsx/HEMCO/GMI/v2015-02/gmi.clim.IPMN.geos5.2x25.nc
HEMCO: Opening /fsx/HEMCO/GMI/v2015-02/gmi.clim.PPN.geos5.2x25.nc
HEMCO: Opening /fsx/HEMCO/GMI/v2015-02/gmi.clim.PRPE.geos5.2x25.nc
HEMCO: Opening /fsx/HEMCO/GMI/v2015-02/gmi.clim.R4N2.geos5.2x25.nc
HEMCO: Opening /fsx/HEMCO/GMI/v2015-02/gmi.clim.RCHO.geos5.2x25.nc
HEMCO: Opening /fsx/HEMCO/GMI/v2015-02/gmi.clim.RIPA.geos5.2x25.nc
HEMCO: Opening /fsx/HEMCO/GMI/v2015-02/gmi.clim.RIPB.geos5.2x25.nc
HEMCO: Opening /fsx/HEMCO/GMI/v2015-02/gmi.clim.RIPD.geos5.2x25.nc
HEMCO: Opening /fsx/HEMCO/GMI/v2015-02/gmi.clim.OH.geos5.2x25.nc
HEMCO: Opening /fsx/HEMCO/NOAA_GMD/v2018-01/monthly.gridded.surface.methane.1979-2020.1x1.nc
HEMCO: Opening /fsx/HEMCO/GEIA/v2014-07/GEIA_monthscal.generic.1x1.nc
HEMCO: Opening /fsx/HEMCO/EMEP/v2015-03/EMEP.Seasonal.geos.1x1.nc
HEMCO: Opening /fsx/HEMCO/BROMINE/v2015-02/BromoCarb_Season.nc
HEMCO: Opening /fsx/HEMCO/EDGARv43/v2016-11/EDGAR_v43.Seasonal.1x1.nc
HEMCO: Opening /fsx/HEMCO/NEI2005/v2014-09/scaling/NEI99.dow.geos.1x1.nc
HEMCO: Opening /fsx/HEMCO/VOLCANO/v2015-02/2009/volc_so2_gen.1x1.47L.200901.nc
HEMCO: Opening /fsx/HEMCO/SOILNOX/v2014-07/soilNOx.fert_res.generic.05x05.nc
 vdinti: pbl height will be limited to bottom           25  model levels. top is
     431.250100000000       hpa
 =================================================
 W R F - G C   T I M E R S
    Domain           1 (Units: s)
 =================================================
  => Coupler Component                       0.053
   -- Physics & Parameterization             0.011
   -- Diagnostics Out                        0.000
  => GEOS-Chem Column                      122.363
  ===> Total Chemistry                     122.416
  => WRF                                    17.304
  ===> Total WRF-GC                        139.720
 max optd  4.5185168E+30
 max taucldi  8.0567748E-09
 max taucldw  1.3724442E-06
 Switching is not necessary as we are already
 in the right domain!
 GIGC_Chunk_Run: Running for in-PET grid #           1
 GIGC_Chunk_Run: Received new grid IM, JM, LM =          14           9
          49
 =================================================
 W R F - G C   T I M E R S
    Domain           1 (Units: s)
 =================================================
  => Coupler Component                       0.086
   -- Physics & Parameterization             0.021
   -- Diagnostics Out                        0.000
  => GEOS-Chem Column                      123.364
  ===> Total Chemistry                     123.450
  => WRF                                    68.517
  ===> Total WRF-GC                        191.966
 max optd  4.5185168E+30
 max taucldi  1.5482282E-08
 max taucldw  2.1112467E-06
 Switching is not necessary as we are already
 in the right domain!
 GIGC_Chunk_Run: Running for in-PET grid #           1
 GIGC_Chunk_Run: Received new grid IM, JM, LM =          14           9
          49
 =================================================
 W R F - G C   T I M E R S
    Domain           1 (Units: s)
 =================================================
  => Coupler Component                       0.114
   -- Physics & Parameterization             0.031
   -- Diagnostics Out                        0.000
  => GEOS-Chem Column                      124.358
  ===> Total Chemistry                     124.471
  => WRF                                    89.387
  ===> Total WRF-GC                        213.859
 max optd  4.5185168E+30
 max taucldi  1.9731825E-08
 max taucldw  2.0387292E-06
 Switching is not necessary as we are already
 in the right domain!
 GIGC_Chunk_Run: Running for in-PET grid #           1
 GIGC_Chunk_Run: Received new grid IM, JM, LM =          14           9
          49
 =================================================
 W R F - G C   T I M E R S
    Domain           1 (Units: s)
 =================================================
  => Coupler Component                       0.147
   -- Physics & Parameterization             0.041
   -- Diagnostics Out                        0.000
  => GEOS-Chem Column                      125.315
  ===> Total Chemistry                     125.463
  => WRF                                   108.465
  ===> Total WRF-GC                        233.927
 max optd  4.5185168E+30
 max taucldi  2.4661389E-08
 max taucldw  2.2735758E-06
 Switching is not necessary as we are already
 in the right domain!
 GIGC_Chunk_Run: Running for in-PET grid #           1
 GIGC_Chunk_Run: Received new grid IM, JM, LM =          14           9
          49
 =================================================
 W R F - G C   T I M E R S
    Domain           1 (Units: s)
 =================================================
  => Coupler Component                       0.178
   -- Physics & Parameterization             0.051
   -- Diagnostics Out                        0.000
  => GEOS-Chem Column                      126.255
  ===> Total Chemistry                     126.433
  => WRF                                   127.139
  ===> Total WRF-GC                        253.572
 max optd  4.5185168E+30
 max taucldi  2.9430996E-08
 max taucldw  2.3903724E-06
 Switching is not necessary as we are already
 in the right domain!
 GIGC_Chunk_Run: Running for in-PET grid #           1
 GIGC_Chunk_Run: Received new grid IM, JM, LM =          14           9
          49
 =================================================
 W R F - G C   T I M E R S
    Domain           1 (Units: s)
 =================================================
  => Coupler Component                       0.209
   -- Physics & Parameterization             0.061
   -- Diagnostics Out                        0.000
  => GEOS-Chem Column                      127.196
  ===> Total Chemistry                     127.404
  => WRF                                   145.713
  ===> Total WRF-GC                        273.117
 max optd  4.5185168E+30
 max taucldi  3.3642554E-08
 max taucldw  2.4772919E-06
 Switching is not necessary as we are already
 in the right domain!
 GIGC_Chunk_Run: Running for in-PET grid #           1
 GIGC_Chunk_Run: Received new grid IM, JM, LM =          14           9
          49
 =================================================
 W R F - G C   T I M E R S
    Domain           1 (Units: s)
 =================================================
  => Coupler Component                       0.238
   -- Physics & Parameterization             0.070
   -- Diagnostics Out                        0.000
  => GEOS-Chem Column                      128.131
  ===> Total Chemistry                     128.369
  => WRF                                   164.274
  ===> Total WRF-GC                        292.643
 max optd  4.5185168E+30
 max taucldi  3.9280362E-08
 max taucldw  2.7286735E-06
 Switching is not necessary as we are already
 in the right domain!
 GIGC_Chunk_Run: Running for in-PET grid #           1
 GIGC_Chunk_Run: Received new grid IM, JM, LM =          14           9
          49
 =================================================
 W R F - G C   T I M E R S
    Domain           1 (Units: s)
 =================================================
  => Coupler Component                       0.266
   -- Physics & Parameterization             0.080
   -- Diagnostics Out                        0.000
  => GEOS-Chem Column                      129.075
  ===> Total Chemistry                     129.341
  => WRF                                   182.784
  ===> Total WRF-GC                        312.125
 max optd  4.5185168E+30
 max taucldi  4.6662937E-08
 max taucldw  2.9137100E-06
 Switching is not necessary as we are already
 in the right domain!
 GIGC_Chunk_Run: Running for in-PET grid #           1
 GIGC_Chunk_Run: Received new grid IM, JM, LM =          14           9
          49
 =================================================
 W R F - G C   T I M E R S
    Domain           1 (Units: s)
 =================================================
  => Coupler Component                       0.294
   -- Physics & Parameterization             0.089
   -- Diagnostics Out                        0.000
  => GEOS-Chem Column                      130.017
  ===> Total Chemistry                     130.311
  => WRF                                   201.281
  ===> Total WRF-GC                        331.592
 max optd  4.5185168E+30
 max taucldi  5.4507542E-08
 max taucldw  3.1267614E-06
 Switching is not necessary as we are already
 in the right domain!
 GIGC_Chunk_Run: Running for in-PET grid #           1
 GIGC_Chunk_Run: Received new grid IM, JM, LM =          14           9
          49
 =================================================
 W R F - G C   T I M E R S
    Domain           1 (Units: s)
 =================================================
  => Coupler Component                       0.325
   -- Physics & Parameterization             0.099
   -- Diagnostics Out                        0.000
  => GEOS-Chem Column                      130.946
  ===> Total Chemistry                     131.271
  => WRF                                   219.826
  ===> Total WRF-GC                        351.096
 max optd  4.5185168E+30
 max taucldi  6.2578515E-08
 max taucldw  3.3182532E-06
 Switching is not necessary as we are already
 in the right domain!
 GIGC_Chunk_Run: Running for in-PET grid #           1
 GIGC_Chunk_Run: Received new grid IM, JM, LM =          14           9
          49
 =================================================
 W R F - G C   T I M E R S
    Domain           1 (Units: s)
 =================================================
  => Coupler Component                       0.357
   -- Physics & Parameterization             0.110
   -- Diagnostics Out                        0.000
  => GEOS-Chem Column                      131.859
  ===> Total Chemistry                     132.216
  => WRF                                   238.302
  ===> Total WRF-GC                        370.518
 max optd  4.5185168E+30
 max taucldi  7.1053265E-08
 max taucldw  3.5175321E-06
 Switching is not necessary as we are already
 in the right domain!
 GIGC_Chunk_Run: Running for in-PET grid #           1
 GIGC_Chunk_Run: Received new grid IM, JM, LM =          14           9
          49
 =================================================
 W R F - G C   T I M E R S
    Domain           1 (Units: s)
 =================================================
  => Coupler Component                       0.390
   -- Physics & Parameterization             0.120
   -- Diagnostics Out                        0.000
  => GEOS-Chem Column                      132.773
  ===> Total Chemistry                     133.163
  => WRF                                   256.680
  ===> Total WRF-GC                        389.842
 HOURLY EMISSIONS UPDATE TIME     3600.0       0.0
mediation_integrate: med_read_wrf_chem_emissions: Read emissions for time 2018-01-01_01:00:00
 max optd  4.5185168E+30
 max taucldi  7.9507934E-08
 max taucldw  3.7054315E-06
 Switching is not necessary as we are already
 in the right domain!
 GIGC_Chunk_Run: Running for in-PET grid #           1
 GIGC_Chunk_Run: Received new grid IM, JM, LM =          14           9
          49
 =================================================
 W R F - G C   T I M E R S
    Domain           1 (Units: s)
 =================================================
  => Coupler Component                       0.424
   -- Physics & Parameterization             0.130
   -- Diagnostics Out                        0.000
  => GEOS-Chem Column                      133.690
  ===> Total Chemistry                     134.114
  => WRF                                   275.139
  ===> Total WRF-GC                        409.253
 max optd  4.5185168E+30
 max taucldi  8.7737597E-08
 max taucldw  3.8714352E-06
 Switching is not necessary as we are already
 in the right domain!
 GIGC_Chunk_Run: Running for in-PET grid #           1
 GIGC_Chunk_Run: Received new grid IM, JM, LM =          14           9
          49
 =================================================
 W R F - G C   T I M E R S
    Domain           1 (Units: s)
 =================================================
  => Coupler Component                       0.458
   -- Physics & Parameterization             0.140
   -- Diagnostics Out                        0.000
  => GEOS-Chem Column                      134.598
  ===> Total Chemistry                     135.057
  => WRF                                   293.589
  ===> Total WRF-GC                        428.645
 max optd  4.5185168E+30
 max taucldi  9.5646357E-08
 max taucldw  4.0282257E-06
 Switching is not necessary as we are already
 in the right domain!
 GIGC_Chunk_Run: Running for in-PET grid #           1
 GIGC_Chunk_Run: Received new grid IM, JM, LM =          14           9
          49
 =================================================
 W R F - G C   T I M E R S
    Domain           1 (Units: s)
 =================================================
  => Coupler Component                       0.487
   -- Physics & Parameterization             0.150
   -- Diagnostics Out                        0.000
  => GEOS-Chem Column                      135.528
  ===> Total Chemistry                     136.016
  => WRF                                   311.943
  ===> Total WRF-GC                        447.958
 max optd  4.5185168E+30
 max taucldi  1.0307096E-07
 max taucldw  4.1600942E-06
 Switching is not necessary as we are already
 in the right domain!
 GIGC_Chunk_Run: Running for in-PET grid #           1
 GIGC_Chunk_Run: Received new grid IM, JM, LM =          14           9
          49
 =================================================
 W R F - G C   T I M E R S
    Domain           1 (Units: s)
 =================================================
  => Coupler Component                       0.516
   -- Physics & Parameterization             0.159
   -- Diagnostics Out                        0.000
  => GEOS-Chem Column                      136.433
  ===> Total Chemistry                     136.948
  => WRF                                   330.327
  ===> Total WRF-GC                        467.276
 max optd  4.5185168E+30
 max taucldi  1.1038449E-07
 max taucldw  4.2831011E-06
 Switching is not necessary as we are already
 in the right domain!
 GIGC_Chunk_Run: Running for in-PET grid #           1
 GIGC_Chunk_Run: Received new grid IM, JM, LM =          14           9
          49
 =================================================
 W R F - G C   T I M E R S
    Domain           1 (Units: s)
 =================================================
  => Coupler Component                       0.551
   -- Physics & Parameterization             0.169
   -- Diagnostics Out                        0.000
  => GEOS-Chem Column                      137.340
  ===> Total Chemistry                     137.891
  => WRF                                   348.717
  ===> Total WRF-GC                        486.608
 max optd  4.5185168E+30
 max taucldi  1.1779843E-07
 max taucldw  4.4018861E-06
 Switching is not necessary as we are already
 in the right domain!
 GIGC_Chunk_Run: Running for in-PET grid #           1
 GIGC_Chunk_Run: Received new grid IM, JM, LM =          14           9
          49
 =================================================
 W R F - G C   T I M E R S
    Domain           1 (Units: s)
 =================================================
  => Coupler Component                       0.586
   -- Physics & Parameterization             0.179
   -- Diagnostics Out                        0.000
  => GEOS-Chem Column                      138.246
  ===> Total Chemistry                     138.832
  => WRF                                   367.055
  ===> Total WRF-GC                        505.888
 max optd  4.5185168E+30
 max taucldi  1.2532018E-07
 max taucldw  4.5030815E-06
 Switching is not necessary as we are already
 in the right domain!
 GIGC_Chunk_Run: Running for in-PET grid #           1
 GIGC_Chunk_Run: Received new grid IM, JM, LM =          14           9
          49
 =================================================
 W R F - G C   T I M E R S
    Domain           1 (Units: s)
 =================================================
  => Coupler Component                       0.616
   -- Physics & Parameterization             0.188
   -- Diagnostics Out                        0.000
  => GEOS-Chem Column                      139.157
  ===> Total Chemistry                     139.773
  => WRF                                   385.462
  ===> Total WRF-GC                        525.235
 max optd  4.5185168E+30
 max taucldi  1.3361107E-07
 max taucldw  4.6125151E-06
 Switching is not necessary as we are already
 in the right domain!
 GIGC_Chunk_Run: Running for in-PET grid #           1
 GIGC_Chunk_Run: Received new grid IM, JM, LM =          14           9
          49
 =================================================
 W R F - G C   T I M E R S
    Domain           1 (Units: s)
 =================================================
  => Coupler Component                       0.652
   -- Physics & Parameterization             0.198
   -- Diagnostics Out                        0.000
  => GEOS-Chem Column                      140.075
  ===> Total Chemistry                     140.727
  => WRF                                   403.963
  ===> Total WRF-GC                        544.690
 max optd  4.5185168E+30
 max taucldi  1.4669065E-07
 max taucldw  4.7436247E-06
 Switching is not necessary as we are already
 in the right domain!
 GIGC_Chunk_Run: Running for in-PET grid #           1
 GIGC_Chunk_Run: Received new grid IM, JM, LM =          14           9
          49
 =================================================
 W R F - G C   T I M E R S
    Domain           1 (Units: s)
 =================================================
  => Coupler Component                       0.681
   -- Physics & Parameterization             0.208
   -- Diagnostics Out                        0.000
  => GEOS-Chem Column                      141.008
  ===> Total Chemistry                     141.688
  => WRF                                   422.218
  ===> Total WRF-GC                        563.907
 max optd  4.5185168E+30
 max taucldi  1.6491254E-07
 max taucldw  4.8648621E-06
 Switching is not necessary as we are already
 in the right domain!
 GIGC_Chunk_Run: Running for in-PET grid #           1
 GIGC_Chunk_Run: Received new grid IM, JM, LM =          14           9
          49
 =================================================
 W R F - G C   T I M E R S
    Domain           1 (Units: s)
 =================================================
  => Coupler Component                       0.718
   -- Physics & Parameterization             0.218
   -- Diagnostics Out                        0.000
  => GEOS-Chem Column                      141.919
  ===> Total Chemistry                     142.637
  => WRF                                   440.499
  ===> Total WRF-GC                        583.136
 max optd  4.5185168E+30
 max taucldi  1.9271786E-07
 max taucldw  5.0140711E-06
 Switching is not necessary as we are already
 in the right domain!
 GIGC_Chunk_Run: Running for in-PET grid #           1
 GIGC_Chunk_Run: Received new grid IM, JM, LM =          14           9
          49
 =================================================
 W R F - G C   T I M E R S
    Domain           1 (Units: s)
 =================================================
  => Coupler Component                       0.752
   -- Physics & Parameterization             0.227
   -- Diagnostics Out                        0.000
  => GEOS-Chem Column                      142.843
  ===> Total Chemistry                     143.595
  => WRF                                   458.932
  ===> Total WRF-GC                        602.527
 max optd  4.5185168E+30
 max taucldi  2.2582080E-07
 max taucldw  5.1793140E-06
 Switching is not necessary as we are already
 in the right domain!
 GIGC_Chunk_Run: Running for in-PET grid #           1
 GIGC_Chunk_Run: Received new grid IM, JM, LM =          14           9
          49
 =================================================
 W R F - G C   T I M E R S
    Domain           1 (Units: s)
 =================================================
  => Coupler Component                       0.782
   -- Physics & Parameterization             0.237
   -- Diagnostics Out                        0.000
  => GEOS-Chem Column                      143.761
  ===> Total Chemistry                     144.543
  => WRF                                   477.254
  ===> Total WRF-GC                        621.797
 HOURLY EMISSIONS UPDATE TIME     7200.0       0.0
mediation_integrate: med_read_wrf_chem_emissions: Read emissions for time 2018-01-01_02:00:00
 max optd  4.5185168E+30
 max taucldi  2.6402810E-07
 max taucldw  5.4704747E-06
 Switching is not necessary as we are already
 in the right domain!
 GIGC_Chunk_Run: Running for in-PET grid #           1
 GIGC_Chunk_Run: Received new grid IM, JM, LM =          14           9
          49
 =================================================
 W R F - G C   T I M E R S
    Domain           1 (Units: s)
 =================================================
  => Coupler Component                       0.817
   -- Physics & Parameterization             0.247
   -- Diagnostics Out                        0.000
  => GEOS-Chem Column                      144.671
  ===> Total Chemistry                     145.488
  => WRF                                   495.583
  ===> Total WRF-GC                        641.071
 max optd  4.5185168E+30
 max taucldi  3.0628863E-07
 max taucldw  5.9007552E-06
 Switching is not necessary as we are already
 in the right domain!
 GIGC_Chunk_Run: Running for in-PET grid #           1
 GIGC_Chunk_Run: Received new grid IM, JM, LM =          14           9
          49
 =================================================
 W R F - G C   T I M E R S
    Domain           1 (Units: s)
 =================================================
  => Coupler Component                       0.846
   -- Physics & Parameterization             0.257
   -- Diagnostics Out                        0.000
  => GEOS-Chem Column                      145.612
  ===> Total Chemistry                     146.458
  => WRF                                   513.969
  ===> Total WRF-GC                        660.427
 max optd  4.5185168E+30
 max taucldi  3.5228433E-07
 max taucldw  6.4021265E-06
 Switching is not necessary as we are already
 in the right domain!
 GIGC_Chunk_Run: Running for in-PET grid #           1
 GIGC_Chunk_Run: Received new grid IM, JM, LM =          14           9
          49
 =================================================
 W R F - G C   T I M E R S
    Domain           1 (Units: s)
 =================================================
  => Coupler Component                       0.877
   -- Physics & Parameterization             0.266
   -- Diagnostics Out                        0.000
  => GEOS-Chem Column                      146.554
  ===> Total Chemistry                     147.431
  => WRF                                   532.204
  ===> Total WRF-GC                        679.636
 max optd  4.5185168E+30
 max taucldi  4.0100605E-07
 max taucldw  6.9169091E-06
 Switching is not necessary as we are already
 in the right domain!
 GIGC_Chunk_Run: Running for in-PET grid #           1
 GIGC_Chunk_Run: Received new grid IM, JM, LM =          14           9
          49
 =================================================
 W R F - G C   T I M E R S
    Domain           1 (Units: s)
 =================================================
  => Coupler Component                       0.910
   -- Physics & Parameterization             0.276
   -- Diagnostics Out                        0.000
  => GEOS-Chem Column                      147.472
  ===> Total Chemistry                     148.383
  => WRF                                   550.427
  ===> Total WRF-GC                        698.809
 max optd  4.5185168E+30
 max taucldi  4.5107959E-07
 max taucldw  7.4106447E-06
 Switching is not necessary as we are already
 in the right domain!
 GIGC_Chunk_Run: Running for in-PET grid #           1
 GIGC_Chunk_Run: Received new grid IM, JM, LM =          14           9
          49
 =================================================
 W R F - G C   T I M E R S
    Domain           1 (Units: s)
 =================================================
  => Coupler Component                       0.943
   -- Physics & Parameterization             0.286
   -- Diagnostics Out                        0.000
  => GEOS-Chem Column                      148.396
  ===> Total Chemistry                     149.339
  => WRF                                   568.695
  ===> Total WRF-GC                        718.034
 max optd  4.5185168E+30
 max taucldi  5.0289395E-07
 max taucldw  7.9003094E-06
 Switching is not necessary as we are already
 in the right domain!
 GIGC_Chunk_Run: Running for in-PET grid #           1
 GIGC_Chunk_Run: Received new grid IM, JM, LM =          14           9
          49
 =================================================
 W R F - G C   T I M E R S
    Domain           1 (Units: s)
 =================================================
  => Coupler Component                       0.979
   -- Physics & Parameterization             0.296
   -- Diagnostics Out                        0.000
  => GEOS-Chem Column                      149.306
  ===> Total Chemistry                     150.284
  => WRF                                   586.960
  ===> Total WRF-GC                        737.244
 max optd  4.5185168E+30
 max taucldi  5.5498151E-07
 max taucldw  8.3696514E-06
 Switching is not necessary as we are already
 in the right domain!
 GIGC_Chunk_Run: Running for in-PET grid #           1
 GIGC_Chunk_Run: Received new grid IM, JM, LM =          14           9
          49
 =================================================
 W R F - G C   T I M E R S
    Domain           1 (Units: s)
 =================================================
  => Coupler Component                       1.011
   -- Physics & Parameterization             0.306
   -- Diagnostics Out                        0.000
  => GEOS-Chem Column                      150.237
  ===> Total Chemistry                     151.247
  => WRF                                   605.260
  ===> Total WRF-GC                        756.507
 max optd  4.5185168E+30
 max taucldi  6.0693321E-07
 max taucldw  8.8263196E-06
 Switching is not necessary as we are already
 in the right domain!
 GIGC_Chunk_Run: Running for in-PET grid #           1
 GIGC_Chunk_Run: Received new grid IM, JM, LM =          14           9
          49
 =================================================
 W R F - G C   T I M E R S
    Domain           1 (Units: s)
 =================================================
  => Coupler Component                       1.044
   -- Physics & Parameterization             0.315
   -- Diagnostics Out                        0.000
  => GEOS-Chem Column                      151.159
  ===> Total Chemistry                     152.203
  => WRF                                   623.459
  ===> Total WRF-GC                        775.662
 max optd  4.5185168E+30
 max taucldi  6.5738220E-07
 max taucldw  9.2524824E-06
 Switching is not necessary as we are already
 in the right domain!
 GIGC_Chunk_Run: Running for in-PET grid #           1
 GIGC_Chunk_Run: Received new grid IM, JM, LM =          14           9
          49
 =================================================
 W R F - G C   T I M E R S
    Domain           1 (Units: s)
 =================================================
  => Coupler Component                       1.075
   -- Physics & Parameterization             0.325
   -- Diagnostics Out                        0.000
  => GEOS-Chem Column                      152.069
  ===> Total Chemistry                     153.143
  => WRF                                   641.704
  ===> Total WRF-GC                        794.847
 max optd  4.5185168E+30
 max taucldi  7.0737821E-07
 max taucldw  9.6742615E-06
 Switching is not necessary as we are already
 in the right domain!
 GIGC_Chunk_Run: Running for in-PET grid #           1
 GIGC_Chunk_Run: Received new grid IM, JM, LM =          14           9
          49
 =================================================
 W R F - G C   T I M E R S
    Domain           1 (Units: s)
 =================================================
  => Coupler Component                       1.110
   -- Physics & Parameterization             0.335
   -- Diagnostics Out                        0.000
  => GEOS-Chem Column                      152.987
  ===> Total Chemistry                     154.097
  => WRF                                   659.990
  ===> Total WRF-GC                        814.087
 max optd  4.5185168E+30
 max taucldi  7.5721277E-07
 max taucldw  1.0080628E-05
 Switching is not necessary as we are already
 in the right domain!
 GIGC_Chunk_Run: Running for in-PET grid #           1
 GIGC_Chunk_Run: Received new grid IM, JM, LM =          14           9
          49
 =================================================
 W R F - G C   T I M E R S
    Domain           1 (Units: s)
 =================================================
  => Coupler Component                       1.139
   -- Physics & Parameterization             0.345
   -- Diagnostics Out                        0.000
  => GEOS-Chem Column                      153.930
  ===> Total Chemistry                     155.069
  => WRF                                   678.204
  ===> Total WRF-GC                        833.274
 max optd  4.5185168E+30
 max taucldi  8.0864305E-07
 max taucldw  1.0482679E-05
 Switching is not necessary as we are already
 in the right domain!
 GIGC_Chunk_Run: Running for in-PET grid #           1
 GIGC_Chunk_Run: Received new grid IM, JM, LM =          14           9
          49
 =================================================
 W R F - G C   T I M E R S
    Domain           1 (Units: s)
 =================================================
  => Coupler Component                       1.173
   -- Physics & Parameterization             0.355
   -- Diagnostics Out                        0.000
  => GEOS-Chem Column                      154.852
  ===> Total Chemistry                     156.024
  => WRF                                   696.369
  ===> Total WRF-GC                        852.393
 HOURLY EMISSIONS UPDATE TIME    10800.0       0.0
mediation_integrate: med_read_wrf_chem_emissions: Read emissions for time 2018-01-01_03:00:00
 max optd  4.5185168E+30
 max taucldi  8.5871346E-07
 max taucldw  1.0882312E-05
 Switching is not necessary as we are already
 in the right domain!
 GIGC_Chunk_Run: Running for in-PET grid #           1
 GIGC_Chunk_Run: Received new grid IM, JM, LM =          14           9
          49
 =================================================
 W R F - G C   T I M E R S
    Domain           1 (Units: s)
 =================================================
  => Coupler Component                       1.205
   -- Physics & Parameterization             0.365
   -- Diagnostics Out                        0.000
  => GEOS-Chem Column                      155.768
  ===> Total Chemistry                     156.973
  => WRF                                   714.654
  ===> Total WRF-GC                        871.627
 max optd  4.5185168E+30
 max taucldi  9.1024924E-07
 max taucldw  1.1288657E-05
 Switching is not necessary as we are already
 in the right domain!
 GIGC_Chunk_Run: Running for in-PET grid #           1
 GIGC_Chunk_Run: Received new grid IM, JM, LM =          14           9
          49
 =================================================
 W R F - G C   T I M E R S
    Domain           1 (Units: s)
 =================================================
  => Coupler Component                       1.239
   -- Physics & Parameterization             0.375
   -- Diagnostics Out                        0.000
  => GEOS-Chem Column                      156.698
  ===> Total Chemistry                     157.937
  => WRF                                   732.879
  ===> Total WRF-GC                        890.816
 max optd  4.5185168E+30
 max taucldi  9.6258941E-07
 max taucldw  1.1666969E-05
 Switching is not necessary as we are already
 in the right domain!
 GIGC_Chunk_Run: Running for in-PET grid #           1
 GIGC_Chunk_Run: Received new grid IM, JM, LM =          14           9
          49
 =================================================
 W R F - G C   T I M E R S
    Domain           1 (Units: s)
 =================================================
  => Coupler Component                       1.271
   -- Physics & Parameterization             0.385
   -- Diagnostics Out                        0.000
  => GEOS-Chem Column                      157.619
  ===> Total Chemistry                     158.890
  => WRF                                   751.122
  ===> Total WRF-GC                        910.012
 max optd  4.5185168E+30
 max taucldi  1.0169522E-06
 max taucldw  1.2060019E-05
 Switching is not necessary as we are already
 in the right domain!
 GIGC_Chunk_Run: Running for in-PET grid #           1
 GIGC_Chunk_Run: Received new grid IM, JM, LM =          14           9
          49
 =================================================
 W R F - G C   T I M E R S
    Domain           1 (Units: s)
 =================================================
  => Coupler Component                       1.303
   -- Physics & Parameterization             0.395
   -- Diagnostics Out                        0.000
  => GEOS-Chem Column                      158.543
  ===> Total Chemistry                     159.846
  => WRF                                   769.336
  ===> Total WRF-GC                        929.182
 max optd  4.5185168E+30
 max taucldi  1.0756305E-06
 max taucldw  1.2462659E-05
 Switching is not necessary as we are already
 in the right domain!
 GIGC_Chunk_Run: Running for in-PET grid #           1
 GIGC_Chunk_Run: Received new grid IM, JM, LM =          14           9
          49
 =================================================
 W R F - G C   T I M E R S
    Domain           1 (Units: s)
 =================================================
  => Coupler Component                       1.338
   -- Physics & Parameterization             0.405
   -- Diagnostics Out                        0.000
  => GEOS-Chem Column                      159.470
  ===> Total Chemistry                     160.807
  => WRF                                   787.529
  ===> Total WRF-GC                        948.336
 max optd  4.5185168E+30
 max taucldi  1.1363132E-06
 max taucldw  1.2876172E-05
 Switching is not necessary as we are already
 in the right domain!
 GIGC_Chunk_Run: Running for in-PET grid #           1
 GIGC_Chunk_Run: Received new grid IM, JM, LM =          14           9
          49
 =================================================
 W R F - G C   T I M E R S
    Domain           1 (Units: s)
 =================================================
  => Coupler Component                       1.374
   -- Physics & Parameterization             0.415
   -- Diagnostics Out                        0.000
  => GEOS-Chem Column                      160.385
  ===> Total Chemistry                     161.759
  => WRF                                   806.001
  ===> Total WRF-GC                        967.760
 max optd  4.5185168E+30
 max taucldi  1.1994467E-06
 max taucldw  1.3294887E-05
 Switching is not necessary as we are already
 in the right domain!
 GIGC_Chunk_Run: Running for in-PET grid #           1
 GIGC_Chunk_Run: Received new grid IM, JM, LM =          14           9
          49
 =================================================
 W R F - G C   T I M E R S
    Domain           1 (Units: s)
 =================================================
  => Coupler Component                       1.410
   -- Physics & Parameterization             0.425
   -- Diagnostics Out                        0.000
  => GEOS-Chem Column                      161.308
  ===> Total Chemistry                     162.717
  => WRF                                   824.313
  ===> Total WRF-GC                        987.030
 max optd  4.5185168E+30
 max taucldi  1.2651280E-06
 max taucldw  1.3726697E-05
 Switching is not necessary as we are already
 in the right domain!
 GIGC_Chunk_Run: Running for in-PET grid #           1
 GIGC_Chunk_Run: Received new grid IM, JM, LM =          14           9
          49
 =================================================
 W R F - G C   T I M E R S
    Domain           1 (Units: s)
 =================================================
  => Coupler Component                       1.444
   -- Physics & Parameterization             0.435
   -- Diagnostics Out                        0.000
  => GEOS-Chem Column                      162.226
  ===> Total Chemistry                     163.670
  => WRF                                   842.480
  ===> Total WRF-GC                       1006.151
 max optd  4.5185168E+30
 max taucldi  1.3326418E-06
 max taucldw  1.4134378E-05
 Switching is not necessary as we are already
 in the right domain!
 GIGC_Chunk_Run: Running for in-PET grid #           1
 GIGC_Chunk_Run: Received new grid IM, JM, LM =          14           9
          49
 =================================================
 W R F - G C   T I M E R S
    Domain           1 (Units: s)
 =================================================
  => Coupler Component                       1.480
   -- Physics & Parameterization             0.445
   -- Diagnostics Out                        0.000
  => GEOS-Chem Column                      163.151
  ===> Total Chemistry                     164.631
  => WRF                                   860.826
  ===> Total WRF-GC                       1025.457
 max optd  4.5185168E+30
 max taucldi  1.4025576E-06
 max taucldw  1.4565393E-05
 Switching is not necessary as we are already
 in the right domain!
 GIGC_Chunk_Run: Running for in-PET grid #           1
 GIGC_Chunk_Run: Received new grid IM, JM, LM =          14           9
          49
 =================================================
 W R F - G C   T I M E R S
    Domain           1 (Units: s)
 =================================================
  => Coupler Component                       1.514
   -- Physics & Parameterization             0.455
   -- Diagnostics Out                        0.000
  => GEOS-Chem Column                      164.073
  ===> Total Chemistry                     165.587
  => WRF                                   879.101
  ===> Total WRF-GC                       1044.689
 max optd  4.5185168E+30
 max taucldi  1.4734779E-06
 max taucldw  1.4981788E-05
 Switching is not necessary as we are already
 in the right domain!
 GIGC_Chunk_Run: Running for in-PET grid #           1
 GIGC_Chunk_Run: Received new grid IM, JM, LM =          14           9
          49
 =================================================
 W R F - G C   T I M E R S
    Domain           1 (Units: s)
 =================================================
  => Coupler Component                       1.549
   -- Physics & Parameterization             0.465
   -- Diagnostics Out                        0.000
  => GEOS-Chem Column                      164.992
  ===> Total Chemistry                     166.541
  => WRF                                   897.328
  ===> Total WRF-GC                       1063.869
 max optd  4.5185168E+30
 max taucldi  1.5459339E-06
 max taucldw  1.5399413E-05
 Switching is not necessary as we are already
 in the right domain!
 GIGC_Chunk_Run: Running for in-PET grid #           1
 GIGC_Chunk_Run: Received new grid IM, JM, LM =          14           9
          49
 =================================================
 W R F - G C   T I M E R S
    Domain           1 (Units: s)
 =================================================
  => Coupler Component                       1.584
   -- Physics & Parameterization             0.476
   -- Diagnostics Out                        0.000
  => GEOS-Chem Column                      165.917
  ===> Total Chemistry                     167.501
  => WRF                                   915.604
  ===> Total WRF-GC                       1083.105
 HOURLY EMISSIONS UPDATE TIME    14400.0       0.0
mediation_integrate: med_read_wrf_chem_emissions: Read emissions for time 2018-01-01_04:00:00
 max optd  4.5185168E+30
 max taucldi  1.6192770E-06
 max taucldw  1.5809470E-05
 Switching is not necessary as we are already
 in the right domain!
 GIGC_Chunk_Run: Running for in-PET grid #           1
 GIGC_Chunk_Run: Received new grid IM, JM, LM =          14           9
          49
 =================================================
 W R F - G C   T I M E R S
    Domain           1 (Units: s)
 =================================================
  => Coupler Component                       1.614
   -- Physics & Parameterization             0.486
   -- Diagnostics Out                        0.000
  => GEOS-Chem Column                      166.853
  ===> Total Chemistry                     168.466
  => WRF                                   933.890
  ===> Total WRF-GC                       1102.356
 max optd  4.5185168E+30
 max taucldi  1.6930373E-06
 max taucldw  1.6225933E-05
 Switching is not necessary as we are already
 in the right domain!
 GIGC_Chunk_Run: Running for in-PET grid #           1
 GIGC_Chunk_Run: Received new grid IM, JM, LM =          14           9
          49
 =================================================
 W R F - G C   T I M E R S
    Domain           1 (Units: s)
 =================================================
  => Coupler Component                       1.649
   -- Physics & Parameterization             0.495
   -- Diagnostics Out                        0.000
  => GEOS-Chem Column                      167.781
  ===> Total Chemistry                     169.431
  => WRF                                   952.130
  ===> Total WRF-GC                       1121.561
 max optd  4.5185168E+30
 max taucldi  1.7672867E-06
 max taucldw  1.6638358E-05
 Switching is not necessary as we are already
 in the right domain!
 GIGC_Chunk_Run: Running for in-PET grid #           1
 GIGC_Chunk_Run: Received new grid IM, JM, LM =          14           9
          49
 =================================================
 W R F - G C   T I M E R S
    Domain           1 (Units: s)
 =================================================
  => Coupler Component                       1.684
   -- Physics & Parameterization             0.505
   -- Diagnostics Out                        0.000
  => GEOS-Chem Column                      168.700
  ===> Total Chemistry                     170.385
  => WRF                                   970.482
  ===> Total WRF-GC                       1140.867
 max optd  4.5185168E+30
 max taucldi  1.8413795E-06
 max taucldw  1.7032335E-05
 Switching is not necessary as we are already
 in the right domain!
 GIGC_Chunk_Run: Running for in-PET grid #           1
 GIGC_Chunk_Run: Received new grid IM, JM, LM =          14           9
          49
 =================================================
 W R F - G C   T I M E R S
    Domain           1 (Units: s)
 =================================================
  => Coupler Component                       1.712
   -- Physics & Parameterization             0.515
   -- Diagnostics Out                        0.000
  => GEOS-Chem Column                      169.640
  ===> Total Chemistry                     171.352
  => WRF                                   988.749
  ===> Total WRF-GC                       1160.101
 max optd  4.5185168E+30
 max taucldi  1.9150698E-06
 max taucldw  1.7430531E-05
 Switching is not necessary as we are already
 in the right domain!
 GIGC_Chunk_Run: Running for in-PET grid #           1
 GIGC_Chunk_Run: Received new grid IM, JM, LM =          14           9
          49
 =================================================
 W R F - G C   T I M E R S
    Domain           1 (Units: s)
 =================================================
  => Coupler Component                       1.739
   -- Physics & Parameterization             0.524
   -- Diagnostics Out                        0.000
  => GEOS-Chem Column                      170.586
  ===> Total Chemistry                     172.324
  => WRF                                  1007.026
  ===> Total WRF-GC                       1179.350
 max optd  4.5185168E+30
 max taucldi  1.9887909E-06
 max taucldw  1.7821163E-05
 Switching is not necessary as we are already
 in the right domain!
 GIGC_Chunk_Run: Running for in-PET grid #           1
 GIGC_Chunk_Run: Received new grid IM, JM, LM =          14           9
          49
 =================================================
 W R F - G C   T I M E R S
    Domain           1 (Units: s)
 =================================================
  => Coupler Component                       1.767
   -- Physics & Parameterization             0.534
   -- Diagnostics Out                        0.000
  => GEOS-Chem Column                      171.500
  ===> Total Chemistry                     173.267
  => WRF                                  1025.278
  ===> Total WRF-GC                       1198.546
 max optd  4.5185168E+30
 max taucldi  2.0603266E-06
 max taucldw  1.8179519E-05
 Switching is not necessary as we are already
 in the right domain!
 GIGC_Chunk_Run: Running for in-PET grid #           1
 GIGC_Chunk_Run: Received new grid IM, JM, LM =          14           9
          49
 =================================================
 W R F - G C   T I M E R S
    Domain           1 (Units: s)
 =================================================
  => Coupler Component                       1.800
   -- Physics & Parameterization             0.544
   -- Diagnostics Out                        0.000
  => GEOS-Chem Column                      172.429
  ===> Total Chemistry                     174.228
  => WRF                                  1043.618
  ===> Total WRF-GC                       1217.846
 max optd  4.5185168E+30
 max taucldi  2.1276223E-06
 max taucldw  1.8515806E-05
 Switching is not necessary as we are already
 in the right domain!
 GIGC_Chunk_Run: Running for in-PET grid #           1
 GIGC_Chunk_Run: Received new grid IM, JM, LM =          14           9
          49
 =================================================
 W R F - G C   T I M E R S
    Domain           1 (Units: s)
 =================================================
  => Coupler Component                       1.835
   -- Physics & Parameterization             0.555
   -- Diagnostics Out                        0.000
  => GEOS-Chem Column                      173.354
  ===> Total Chemistry                     175.189
  => WRF                                  1061.837
  ===> Total WRF-GC                       1237.026
 max optd  4.5185168E+30
 max taucldi  2.1919641E-06
 max taucldw  1.8823113E-05
 Switching is not necessary as we are already
 in the right domain!
 GIGC_Chunk_Run: Running for in-PET grid #           1
 GIGC_Chunk_Run: Received new grid IM, JM, LM =          14           9
          49
 =================================================
 W R F - G C   T I M E R S
    Domain           1 (Units: s)
 =================================================
  => Coupler Component                       1.871
   -- Physics & Parameterization             0.565
   -- Diagnostics Out                        0.000
  => GEOS-Chem Column                      174.271
  ===> Total Chemistry                     176.142
  => WRF                                  1080.110
  ===> Total WRF-GC                       1256.252
 max optd  4.5185168E+30
 max taucldi  2.2529593E-06
 max taucldw  1.9107772E-05
 Switching is not necessary as we are already
 in the right domain!
 GIGC_Chunk_Run: Running for in-PET grid #           1
 GIGC_Chunk_Run: Received new grid IM, JM, LM =          14           9
          49
 =================================================
 W R F - G C   T I M E R S
    Domain           1 (Units: s)
 =================================================
  => Coupler Component                       1.904
   -- Physics & Parameterization             0.575
   -- Diagnostics Out                        0.000
  => GEOS-Chem Column                      175.191
  ===> Total Chemistry                     177.095
  => WRF                                  1098.381
  ===> Total WRF-GC                       1275.476
 max optd  4.5185168E+30
 max taucldi  2.3106618E-06
 max taucldw  1.9354347E-05
 Switching is not necessary as we are already
 in the right domain!
 GIGC_Chunk_Run: Running for in-PET grid #           1
 GIGC_Chunk_Run: Received new grid IM, JM, LM =          14           9
          49
 =================================================
 W R F - G C   T I M E R S
    Domain           1 (Units: s)
 =================================================
  => Coupler Component                       1.935
   -- Physics & Parameterization             0.585
   -- Diagnostics Out                        0.000
  => GEOS-Chem Column                      176.121
  ===> Total Chemistry                     178.056
  => WRF                                  1116.600
  ===> Total WRF-GC                       1294.657
 max optd  4.5185168E+30
 max taucldi  2.3660104E-06
 max taucldw  1.9603873E-05
 Switching is not necessary as we are already
 in the right domain!
 GIGC_Chunk_Run: Running for in-PET grid #           1
 GIGC_Chunk_Run: Received new grid IM, JM, LM =          14           9
          49
 =================================================
 W R F - G C   T I M E R S
    Domain           1 (Units: s)
 =================================================
  => Coupler Component                       1.972
   -- Physics & Parameterization             0.594
   -- Diagnostics Out                        0.000
  => GEOS-Chem Column                      177.049
  ===> Total Chemistry                     179.021
  => WRF                                  1134.790
  ===> Total WRF-GC                       1313.810
 HOURLY EMISSIONS UPDATE TIME    18000.0       0.0
mediation_integrate: med_read_wrf_chem_emissions: Read emissions for time 2018-01-01_05:00:00
 max optd  4.5185168E+30
 max taucldi  2.4197093E-06
 max taucldw  1.9819709E-05
 Switching is not necessary as we are already
 in the right domain!
 GIGC_Chunk_Run: Running for in-PET grid #           1
 GIGC_Chunk_Run: Received new grid IM, JM, LM =          14           9
          49
 =================================================
 W R F - G C   T I M E R S
    Domain           1 (Units: s)
 =================================================
  => Coupler Component                       2.003
   -- Physics & Parameterization             0.604
   -- Diagnostics Out                        0.000
  => GEOS-Chem Column                      177.977
  ===> Total Chemistry                     179.980
  => WRF                                  1153.088
  ===> Total WRF-GC                       1333.068
 max optd  4.5185168E+30
 max taucldi  2.4715002E-06
 max taucldw  2.0073019E-05
 Switching is not necessary as we are already
 in the right domain!
 GIGC_Chunk_Run: Running for in-PET grid #           1
 GIGC_Chunk_Run: Received new grid IM, JM, LM =          14           9
          49
 =================================================
 W R F - G C   T I M E R S
    Domain           1 (Units: s)
 =================================================
  => Coupler Component                       2.037
   -- Physics & Parameterization             0.614
   -- Diagnostics Out                        0.000
  => GEOS-Chem Column                      178.906
  ===> Total Chemistry                     180.943
  => WRF                                  1171.312
  ===> Total WRF-GC                       1352.254
 max optd  4.5185168E+30
 max taucldi  2.5217371E-06
 max taucldw  2.0315070E-05
 Switching is not necessary as we are already
 in the right domain!
 GIGC_Chunk_Run: Running for in-PET grid #           1
 GIGC_Chunk_Run: Received new grid IM, JM, LM =          14           9
          49
 =================================================
 W R F - G C   T I M E R S
    Domain           1 (Units: s)
 =================================================
  => Coupler Component                       2.072
   -- Physics & Parameterization             0.624
   -- Diagnostics Out                        0.000
  => GEOS-Chem Column                      179.832
  ===> Total Chemistry                     181.904
  => WRF                                  1189.531
  ===> Total WRF-GC                       1371.435
 max optd  4.5185168E+30
 max taucldi  2.5709860E-06
 max taucldw  2.0566506E-05
 Switching is not necessary as we are already
 in the right domain!
 GIGC_Chunk_Run: Running for in-PET grid #           1
 GIGC_Chunk_Run: Received new grid IM, JM, LM =          14           9
          49
 =================================================
 W R F - G C   T I M E R S
    Domain           1 (Units: s)
 =================================================
  => Coupler Component                       2.103
   -- Physics & Parameterization             0.633
   -- Diagnostics Out                        0.000
  => GEOS-Chem Column                      180.752
  ===> Total Chemistry                     182.855
  => WRF                                  1207.814
  ===> Total WRF-GC                       1390.668
 max optd  4.5185168E+30
 max taucldi  2.6267296E-06
 max taucldw  2.0832056E-05
 Switching is not necessary as we are already
 in the right domain!
 GIGC_Chunk_Run: Running for in-PET grid #           1
 GIGC_Chunk_Run: Received new grid IM, JM, LM =          14           9
          49
 =================================================
 W R F - G C   T I M E R S
    Domain           1 (Units: s)
 =================================================
  => Coupler Component                       2.131
   -- Physics & Parameterization             0.643
   -- Diagnostics Out                        0.000
  => GEOS-Chem Column                      181.694
  ===> Total Chemistry                     183.825
  => WRF                                  1226.145
  ===> Total WRF-GC                       1409.969
 max optd  4.5185168E+30
 max taucldi  2.6905245E-06
 max taucldw  2.1121921E-05
 Switching is not necessary as we are already
 in the right domain!
 GIGC_Chunk_Run: Running for in-PET grid #           1
 GIGC_Chunk_Run: Received new grid IM, JM, LM =          14           9
          49
 =================================================
 W R F - G C   T I M E R S
    Domain           1 (Units: s)
 =================================================
  => Coupler Component                       2.166
   -- Physics & Parameterization             0.652
   -- Diagnostics Out                        0.000
  => GEOS-Chem Column                      182.623
  ===> Total Chemistry                     184.789
  => WRF                                  1244.330
  ===> Total WRF-GC                       1429.119
 max optd  4.5185168E+30
 max taucldi  2.7574249E-06
 max taucldw  2.1420521E-05
 Switching is not necessary as we are already
 in the right domain!
 GIGC_Chunk_Run: Running for in-PET grid #           1
 GIGC_Chunk_Run: Received new grid IM, JM, LM =          14           9
          49
 =================================================
 W R F - G C   T I M E R S
    Domain           1 (Units: s)
 =================================================
  => Coupler Component                       2.197
   -- Physics & Parameterization             0.662
   -- Diagnostics Out                        0.000
  => GEOS-Chem Column                      183.539
  ===> Total Chemistry                     185.736
  => WRF                                  1262.663
  ===> Total WRF-GC                       1448.399
 max optd  4.5185168E+30
 max taucldi  2.8293155E-06
 max taucldw  2.1757120E-05
 Switching is not necessary as we are already
 in the right domain!
 GIGC_Chunk_Run: Running for in-PET grid #           1
 GIGC_Chunk_Run: Received new grid IM, JM, LM =          14           9
          49
 =================================================
 W R F - G C   T I M E R S
    Domain           1 (Units: s)
 =================================================
  => Coupler Component                       2.233
   -- Physics & Parameterization             0.672
   -- Diagnostics Out                        0.000
  => GEOS-Chem Column                      184.454
  ===> Total Chemistry                     186.687
  => WRF                                  1280.907
  ===> Total WRF-GC                       1467.594
 max optd  4.5185168E+30
 max taucldi  2.9063949E-06
 max taucldw  2.2104517E-05
 Switching is not necessary as we are already
 in the right domain!
 GIGC_Chunk_Run: Running for in-PET grid #           1
 GIGC_Chunk_Run: Received new grid IM, JM, LM =          14           9
          49
 =================================================
 W R F - G C   T I M E R S
    Domain           1 (Units: s)
 =================================================
  => Coupler Component                       2.265
   -- Physics & Parameterization             0.681
   -- Diagnostics Out                        0.000
  => GEOS-Chem Column                      185.382
  ===> Total Chemistry                     187.646
  => WRF                                  1299.206
  ===> Total WRF-GC                       1486.852
 max optd  4.5185168E+30
 max taucldi  2.9897544E-06
 max taucldw  2.2486380E-05
 Switching is not necessary as we are already
 in the right domain!
 GIGC_Chunk_Run: Running for in-PET grid #           1
 GIGC_Chunk_Run: Received new grid IM, JM, LM =          14           9
          49
 =================================================
 W R F - G C   T I M E R S
    Domain           1 (Units: s)
 =================================================
  => Coupler Component                       2.298
   -- Physics & Parameterization             0.691
   -- Diagnostics Out                        0.000
  => GEOS-Chem Column                      186.311
  ===> Total Chemistry                     188.608
  => WRF                                  1317.758
  ===> Total WRF-GC                       1506.367
 max optd  4.5185168E+30
 max taucldi  3.0817041E-06
 max taucldw  2.2942530E-05
 Switching is not necessary as we are already
 in the right domain!
 GIGC_Chunk_Run: Running for in-PET grid #           1
 GIGC_Chunk_Run: Received new grid IM, JM, LM =          14           9
          49
 =================================================
 W R F - G C   T I M E R S
    Domain           1 (Units: s)
 =================================================
  => Coupler Component                       2.330
   -- Physics & Parameterization             0.701
   -- Diagnostics Out                        0.000
  => GEOS-Chem Column                      187.233
  ===> Total Chemistry                     189.563
  => WRF                                  1336.014
  ===> Total WRF-GC                       1525.577
 max optd  4.5185168E+30
 max taucldi  3.1829034E-06
 max taucldw  2.3426850E-05
 Switching is not necessary as we are already
 in the right domain!
 GIGC_Chunk_Run: Running for in-PET grid #           1
 GIGC_Chunk_Run: Received new grid IM, JM, LM =          14           9
          49
 =================================================
 W R F - G C   T I M E R S
    Domain           1 (Units: s)
 =================================================
  => Coupler Component                       2.359
   -- Physics & Parameterization             0.711
   -- Diagnostics Out                        0.000
  => GEOS-Chem Column                      188.170
  ===> Total Chemistry                     190.529
  => WRF                                  1354.281
  ===> Total WRF-GC                       1544.810
 HOURLY EMISSIONS UPDATE TIME    21600.0       0.0
mediation_integrate: med_read_wrf_chem_emissions: Read emissions for time 2018-01-01_06:00:00
 max optd  4.5185168E+30
 max taucldi  3.2917339E-06
 max taucldw  2.3955670E-05
 Switching is not necessary as we are already
 in the right domain!
 GIGC_Chunk_Run: Running for in-PET grid #           1
 GIGC_Chunk_Run: Received new grid IM, JM, LM =          14           9
          49
 =================================================
 W R F - G C   T I M E R S
    Domain           1 (Units: s)
 =================================================
  => Coupler Component                       2.395
   -- Physics & Parameterization             0.722
   -- Diagnostics Out                        0.000
  => GEOS-Chem Column                      189.099
  ===> Total Chemistry                     191.494
  => WRF                                  1813.069
  ===> Total WRF-GC                       2004.563
 max optd  4.5185168E+30
 max taucldi  3.4092889E-06
 max taucldw  2.4505242E-05
 Switching is not necessary as we are already
 in the right domain!
 GIGC_Chunk_Run: Running for in-PET grid #           1
 GIGC_Chunk_Run: Received new grid IM, JM, LM =          14           9
          49
 =================================================
 W R F - G C   T I M E R S
    Domain           1 (Units: s)
 =================================================
  => Coupler Component                       2.430
   -- Physics & Parameterization             0.732
   -- Diagnostics Out                        0.000
  => GEOS-Chem Column                      190.027
  ===> Total Chemistry                     192.457
  => WRF                                  1831.325
  ===> Total WRF-GC                       2023.782
 max optd  4.5185168E+30
 max taucldi  3.5322691E-06
 max taucldw  2.5104871E-05
 Switching is not necessary as we are already
 in the right domain!
 GIGC_Chunk_Run: Running for in-PET grid #           1
 GIGC_Chunk_Run: Received new grid IM, JM, LM =          14           9
          49
 =================================================
 W R F - G C   T I M E R S
    Domain           1 (Units: s)
 =================================================
  => Coupler Component                       2.463
   -- Physics & Parameterization             0.741
   -- Diagnostics Out                        0.000
  => GEOS-Chem Column                      190.943
  ===> Total Chemistry                     193.405
  => WRF                                  1849.731
  ===> Total WRF-GC                       2043.136
 max optd  4.5185168E+30
 max taucldi  3.6581134E-06
 max taucldw  2.5706100E-05
 Switching is not necessary as we are already
 in the right domain!
 GIGC_Chunk_Run: Running for in-PET grid #           1
 GIGC_Chunk_Run: Received new grid IM, JM, LM =          14           9
          49
 =================================================
 W R F - G C   T I M E R S
    Domain           1 (Units: s)
 =================================================
  => Coupler Component                       2.495
[...]
  => GEOS-Chem Column                      233.456
  ===> Total Chemistry                     237.410
  => WRF                                  2672.879
  ===> Total WRF-GC                       2910.289
 HOURLY EMISSIONS UPDATE TIME    36000.0       0.0
mediation_integrate: med_read_wrf_chem_emissions: Read emissions for time 2018-01-01_10:00:00
 max optd  4.5185168E+30
 max taucldi  1.1495456E-05
 max taucldw  5.1224983E-05
 Switching is not necessary as we are already
 in the right domain!
 GIGC_Chunk_Run: Running for in-PET grid #           1
 GIGC_Chunk_Run: Received new grid IM, JM, LM =          14           9
          49
 =================================================
 W R F - G C   T I M E R S
    Domain           1 (Units: s)
 =================================================
  => Coupler Component                       3.986
   -- Physics & Parameterization             1.208
   -- Diagnostics Out                        0.000
  => GEOS-Chem Column                      234.412
  ===> Total Chemistry                     238.399
  => WRF                                  2691.232
  ===> Total WRF-GC                       2929.631
 max optd  4.5185168E+30
 max taucldi  1.1742782E-05
 max taucldw  5.2073960E-05
 Switching is not necessary as we are already
 in the right domain!
 GIGC_Chunk_Run: Running for in-PET grid #           1
 GIGC_Chunk_Run: Received new grid IM, JM, LM =          14           9
          49
 =================================================
 W R F - G C   T I M E R S
    Domain           1 (Units: s)
 =================================================
  => Coupler Component                       4.019
   -- Physics & Parameterization             1.218
   -- Diagnostics Out                        0.000
  => GEOS-Chem Column                      235.359
  ===> Total Chemistry                     239.378
  => WRF                                  2709.476
  ===> Total WRF-GC                       2948.854
 max optd  4.5185168E+30
 max taucldi  1.2030748E-05
 max taucldw  5.3245494E-05
 Switching is not necessary as we are already
 in the right domain!
 GIGC_Chunk_Run: Running for in-PET grid #           1
 GIGC_Chunk_Run: Received new grid IM, JM, LM =          14           9
          49
 =================================================
 W R F - G C   T I M E R S
    Domain           1 (Units: s)
 =================================================
  => Coupler Component                       4.053
   -- Physics & Parameterization             1.228
   -- Diagnostics Out                        0.000
  => GEOS-Chem Column                      236.310
  ===> Total Chemistry                     240.363
  => WRF                                  2727.725
  ===> Total WRF-GC                       2968.088
 max optd  4.5185168E+30
 max taucldi  1.2311282E-05
 max taucldw  5.4292719E-05
 Switching is not necessary as we are already
 in the right domain!
 GIGC_Chunk_Run: Running for in-PET grid #           1
 GIGC_Chunk_Run: Received new grid IM, JM, LM =          14           9
          49
 =================================================
 W R F - G C   T I M E R S
    Domain           1 (Units: s)
 =================================================
  => Coupler Component                       4.088
   -- Physics & Parameterization             1.238
   -- Diagnostics Out                        0.000
  => GEOS-Chem Column                      237.267
  ===> Total Chemistry                     241.356
  => WRF                                  2746.076
  ===> Total WRF-GC                       2987.432
 max optd  4.5185168E+30
 max taucldi  1.2563860E-05
 max taucldw  5.5195320E-05
 Switching is not necessary as we are already
 in the right domain!
 GIGC_Chunk_Run: Running for in-PET grid #           1
 GIGC_Chunk_Run: Received new grid IM, JM, LM =          14           9
          49
 =================================================
 W R F - G C   T I M E R S
    Domain           1 (Units: s)
 =================================================
  => Coupler Component                       4.122
   -- Physics & Parameterization             1.248
   -- Diagnostics Out                        0.000
  => GEOS-Chem Column                      238.215
  ===> Total Chemistry                     242.338
  => WRF                                  2764.349
  ===> Total WRF-GC                       3006.687
 max optd  4.5185168E+30
 max taucldi  1.3090491E-05
 max taucldw  5.6003577E-05
 Switching is not necessary as we are already
 in the right domain!
 GIGC_Chunk_Run: Running for in-PET grid #           1
 GIGC_Chunk_Run: Received new grid IM, JM, LM =          14           9
          49
 =================================================
 W R F - G C   T I M E R S
    Domain           1 (Units: s)
 =================================================
  => Coupler Component                       4.152
   -- Physics & Parameterization             1.258
   -- Diagnostics Out                        0.000
  => GEOS-Chem Column                      239.166
  ===> Total Chemistry                     243.318
  => WRF                                  2782.571
  ===> Total WRF-GC                       3025.889
 max optd  4.5185168E+30
 max taucldi  2.1214502E-05
 max taucldw  5.6633191E-05
 Switching is not necessary as we are already
 in the right domain!
 GIGC_Chunk_Run: Running for in-PET grid #           1
 GIGC_Chunk_Run: Received new grid IM, JM, LM =          14           9
          49
 =================================================
 W R F - G C   T I M E R S
    Domain           1 (Units: s)
 =================================================
  => Coupler Component                       4.183
   -- Physics & Parameterization             1.268
   -- Diagnostics Out                        0.000
  => GEOS-Chem Column                      240.128
  ===> Total Chemistry                     244.311
  => WRF                                  2800.877
  ===> Total WRF-GC                       3045.188
 max optd  4.5185168E+30
 max taucldi  3.3816821E-05
 max taucldw  5.7176221E-05
 Switching is not necessary as we are already
 in the right domain!
 GIGC_Chunk_Run: Running for in-PET grid #           1
 GIGC_Chunk_Run: Received new grid IM, JM, LM =          14           9
          49
 =================================================
 W R F - G C   T I M E R S
    Domain           1 (Units: s)
 =================================================
  => Coupler Component                       4.218
   -- Physics & Parameterization             1.278
   -- Diagnostics Out                        0.000
  => GEOS-Chem Column                      241.069
  ===> Total Chemistry                     245.287
  => WRF                                  2819.114
  ===> Total WRF-GC                       3064.401
 max optd  4.5185168E+30
 max taucldi  5.1111751E-05
 max taucldw  5.7644760E-05
 Switching is not necessary as we are already
 in the right domain!
 GIGC_Chunk_Run: Running for in-PET grid #           1
 GIGC_Chunk_Run: Received new grid IM, JM, LM =          14           9
          49
 =================================================
 W R F - G C   T I M E R S
    Domain           1 (Units: s)
 =================================================
  => Coupler Component                       4.255
   -- Physics & Parameterization             1.288
   -- Diagnostics Out                        0.000
  => GEOS-Chem Column                      242.001
  ===> Total Chemistry                     246.256
  => WRF                                  2837.364
  ===> Total WRF-GC                       3083.620
 max optd  4.5185168E+30
 max taucldi  7.5353135E-05
 max taucldw  5.8059970E-05
 Switching is not necessary as we are already
 in the right domain!
 GIGC_Chunk_Run: Running for in-PET grid #           1
 GIGC_Chunk_Run: Received new grid IM, JM, LM =          14           9
          49
 =================================================
 W R F - G C   T I M E R S
    Domain           1 (Units: s)
 =================================================
  => Coupler Component                       4.287
   -- Physics & Parameterization             1.298
   -- Diagnostics Out                        0.000
  => GEOS-Chem Column                      242.944
  ===> Total Chemistry                     247.231
  => WRF                                  2855.707
  ===> Total WRF-GC                       3102.938
 max optd  4.5185168E+30
 max taucldi  8.9921523E-05
 max taucldw  5.8474685E-05
 Switching is not necessary as we are already
 in the right domain!
 GIGC_Chunk_Run: Running for in-PET grid #           1
 GIGC_Chunk_Run: Received new grid IM, JM, LM =          14           9
          49
 =================================================
 W R F - G C   T I M E R S
    Domain           1 (Units: s)
 =================================================
  => Coupler Component                       4.323
   -- Physics & Parameterization             1.308
   -- Diagnostics Out                        0.000
  => GEOS-Chem Column                      243.875
  ===> Total Chemistry                     248.198
  => WRF                                  2873.964
  ===> Total WRF-GC                       3122.162
 max optd  4.5185168E+30
 max taucldi  2.7220693E-04
 max taucldw  5.8932663E-05
 Switching is not necessary as we are already
 in the right domain!
 GIGC_Chunk_Run: Running for in-PET grid #           1
 GIGC_Chunk_Run: Received new grid IM, JM, LM =          14           9
          49
 =================================================
 W R F - G C   T I M E R S
    Domain           1 (Units: s)
 =================================================
  => Coupler Component                       4.355
   -- Physics & Parameterization             1.318
   -- Diagnostics Out                        0.000
  => GEOS-Chem Column                      244.809
  ===> Total Chemistry                     249.164
  => WRF                                  2892.299
  ===> Total WRF-GC                       3141.463
 HOURLY EMISSIONS UPDATE TIME    39600.0       0.0
mediation_integrate: med_read_wrf_chem_emissions: Read emissions for time 2018-01-01_11:00:00
 max optd  4.5185168E+30
 max taucldi  6.5524993E-04
 max taucldw  5.9443821E-05
 Switching is not necessary as we are already
 in the right domain!
 GIGC_Chunk_Run: Running for in-PET grid #           1
 GIGC_Chunk_Run: Received new grid IM, JM, LM =          14           9
          49
 =================================================
 W R F - G C   T I M E R S
    Domain           1 (Units: s)
 =================================================
  => Coupler Component                       4.389
   -- Physics & Parameterization             1.328
   -- Diagnostics Out                        0.000
  => GEOS-Chem Column                      245.749
  ===> Total Chemistry                     250.137
  => WRF                                  2910.611
  ===> Total WRF-GC                       3160.748
 max optd  4.5185168E+30
 max taucldi  1.2671936E-03
 max taucldw  5.9987178E-05
 Switching is not necessary as we are already
 in the right domain!
 GIGC_Chunk_Run: Running for in-PET grid #           1
 GIGC_Chunk_Run: Received new grid IM, JM, LM =          14           9
          49
 =================================================
 W R F - G C   T I M E R S
    Domain           1 (Units: s)
 =================================================
  => Coupler Component                       4.421
   -- Physics & Parameterization             1.337
   -- Diagnostics Out                        0.000
  => GEOS-Chem Column                      246.693
  ===> Total Chemistry                     251.114
  => WRF                                  2928.855
  ===> Total WRF-GC                       3179.969
 max optd  4.5185168E+30
 max taucldi  1.9460367E-03
 max taucldw  6.0607053E-05
 Switching is not necessary as we are already
 in the right domain!
 GIGC_Chunk_Run: Running for in-PET grid #           1
 GIGC_Chunk_Run: Received new grid IM, JM, LM =          14           9
          49
 =================================================
 W R F - G C   T I M E R S
    Domain           1 (Units: s)
 =================================================
  => Coupler Component                       4.453
   -- Physics & Parameterization             1.347
   -- Diagnostics Out                        0.000
  => GEOS-Chem Column                      247.630
  ===> Total Chemistry                     252.083
  => WRF                                  2947.204
  ===> Total WRF-GC                       3199.286
 max optd  4.5185168E+30
 max taucldi  2.4426389E-03
 max taucldw  6.1297098E-05
 Switching is not necessary as we are already
 in the right domain!
 GIGC_Chunk_Run: Running for in-PET grid #           1
 GIGC_Chunk_Run: Received new grid IM, JM, LM =          14           9
          49
 =================================================
 W R F - G C   T I M E R S
    Domain           1 (Units: s)
 =================================================
  => Coupler Component                       4.484
   -- Physics & Parameterization             1.357
   -- Diagnostics Out                        0.000
  => GEOS-Chem Column                      248.577
  ===> Total Chemistry                     253.061
  => WRF                                  2965.613
  ===> Total WRF-GC                       3218.675
 max optd  4.5185168E+30
 max taucldi  2.6506688E-03
 max taucldw  6.2012099E-05
 Switching is not necessary as we are already
 in the right domain!
 GIGC_Chunk_Run: Running for in-PET grid #           1
 GIGC_Chunk_Run: Received new grid IM, JM, LM =          14           9
          49
 =================================================
 W R F - G C   T I M E R S
    Domain           1 (Units: s)
 =================================================
  => Coupler Component                       4.517
   -- Physics & Parameterization             1.367
   -- Diagnostics Out                        0.000
  => GEOS-Chem Column                      249.516
  ===> Total Chemistry                     254.032
  => WRF                                  2984.141
  ===> Total WRF-GC                       3238.174
 max optd  4.5185168E+30
 max taucldi  2.7303600E-03
 max taucldw  6.2782347E-05
 Switching is not necessary as we are already
 in the right domain!
 GIGC_Chunk_Run: Running for in-PET grid #           1
 GIGC_Chunk_Run: Received new grid IM, JM, LM =          14           9
          49
 =================================================
 W R F - G C   T I M E R S
    Domain           1 (Units: s)
 =================================================
  => Coupler Component                       4.552
   -- Physics & Parameterization             1.377
   -- Diagnostics Out                        0.000
  => GEOS-Chem Column                      250.446
  ===> Total Chemistry                     254.998
  => WRF                                  3002.654
  ===> Total WRF-GC                       3257.652
 max optd  4.5185168E+30
 max taucldi  2.7802861E-03
 max taucldw  6.3583175E-05
 Switching is not necessary as we are already
 in the right domain!
 GIGC_Chunk_Run: Running for in-PET grid #           1
 GIGC_Chunk_Run: Received new grid IM, JM, LM =          14           9
          49
 =================================================
 W R F - G C   T I M E R S
    Domain           1 (Units: s)
 =================================================
  => Coupler Component                       4.587
   -- Physics & Parameterization             1.387
   -- Diagnostics Out                        0.000
  => GEOS-Chem Column                      251.373
  ===> Total Chemistry                     255.960
  => WRF                                  3021.325
  ===> Total WRF-GC                       3277.285
 max optd  4.5185168E+30
 max taucldi  2.8106200E-03
 max taucldw  6.4394510E-05
 Switching is not necessary as we are already
 in the right domain!
 GIGC_Chunk_Run: Running for in-PET grid #           1
 GIGC_Chunk_Run: Received new grid IM, JM, LM =          14           9
          49
 =================================================
 W R F - G C   T I M E R S
    Domain           1 (Units: s)
 =================================================
  => Coupler Component                       4.622
   -- Physics & Parameterization             1.396
   -- Diagnostics Out                        0.000
  => GEOS-Chem Column                      252.333
  ===> Total Chemistry                     256.955
  => WRF                                  3040.049
  ===> Total WRF-GC                       3297.004
 max optd  4.5185168E+30
 max taucldi  2.7942238E-03
 max taucldw  6.5277316E-05
 Switching is not necessary as we are already
 in the right domain!
 GIGC_Chunk_Run: Running for in-PET grid #           1
 GIGC_Chunk_Run: Received new grid IM, JM, LM =          14           9
          49
 =================================================
 W R F - G C   T I M E R S
    Domain           1 (Units: s)
 =================================================
  => Coupler Component                       4.657
   -- Physics & Parameterization             1.406
   -- Diagnostics Out                        0.000
  => GEOS-Chem Column                      253.267
  ===> Total Chemistry                     257.924
  => WRF                                  3058.793
  ===> Total WRF-GC                       3316.717
 max optd  4.5185168E+30
 max taucldi  2.6993754E-03
 max taucldw  6.6179244E-05
 Switching is not necessary as we are already
 in the right domain!
 GIGC_Chunk_Run: Running for in-PET grid #           1
 GIGC_Chunk_Run: Received new grid IM, JM, LM =          14           9
          49
 =================================================
 W R F - G C   T I M E R S
    Domain           1 (Units: s)
 =================================================
  => Coupler Component                       4.685
   -- Physics & Parameterization             1.416
   -- Diagnostics Out                        0.000
  => GEOS-Chem Column                      254.215
  ===> Total Chemistry                     258.900
  => WRF                                  3077.838
  ===> Total WRF-GC                       3336.738
 max optd  4.5185168E+30
 max taucldi  2.5634787E-03
 max taucldw  6.7018715E-05
 Switching is not necessary as we are already
 in the right domain!
 GIGC_Chunk_Run: Running for in-PET grid #           1
 GIGC_Chunk_Run: Received new grid IM, JM, LM =          14           9
          49
 =================================================
 W R F - G C   T I M E R S
    Domain           1 (Units: s)
 =================================================
  => Coupler Component                       4.722
   -- Physics & Parameterization             1.426
   -- Diagnostics Out                        0.000
  => GEOS-Chem Column                      255.154
  ===> Total Chemistry                     259.875
  => WRF                                  3096.741
  ===> Total WRF-GC                       3356.616
 max optd  4.5185168E+30
 max taucldi  2.2393044E-03
 max taucldw  6.7823836E-05
 Switching is not necessary as we are already
 in the right domain!
 GIGC_Chunk_Run: Running for in-PET grid #           1
 GIGC_Chunk_Run: Received new grid IM, JM, LM =          14           9
          49
 =================================================
 W R F - G C   T I M E R S
    Domain           1 (Units: s)
 =================================================
  => Coupler Component                       4.753
   -- Physics & Parameterization             1.436
   -- Diagnostics Out                        0.000
  => GEOS-Chem Column                      256.092
  ===> Total Chemistry                     260.846
  => WRF                                  3115.608
  ===> Total WRF-GC                       3376.454
d01 2018-01-01_12:00:00 wrf: SUCCESS COMPLETE WRF
