taskid: 4359 hostname: ip-172-31-15-3
Quilting with   1 groups of   0 I/O tasks.
 Ntasks in X           64 , ntasks in Y           72
--- WARNING: traj_opt is zero, but num_traj is not zero; setting num_traj to zero.
--- NOTE: sst_update is 0, setting io_form_auxinput4 = 0 and auxinput4_interval = 0 for all domains
--- NOTE: grid_fdda is 0 for domain      1, setting gfdda interval and ending time to 0 for that domain.
--- NOTE: both grid_sfdda and pxlsm_soil_nudge are 0 for domain      1, setting sgfdda interval and ending time to 0 for that domain.
--- NOTE: obs_nudge_opt is 0 for domain      1, setting obs nudging interval and ending time to 0 for that domain.
--- NOTE: bl_pbl_physics /= 4, implies mfshconv must be 0, resetting
Need MYNN PBL for icloud_bl = 1, resetting to 0
*************************************
No physics suite selected.
Physics options will be used directly from the namelist.
*************************************
--- NOTE: RRTMG radiation is in use, setting:  levsiz=59, alevsiz=12, no_src_types=6
--- NOTE: num_soil_layers has been set to      4
WRF V3.9.1.1 MODEL
 *************************************
 Parent domain
 ids,ide,jds,jde            1         950           1         650
 ims,ime,jms,jme           99         127         607         629
 ips,ipe,jps,jpe          106         120         614         622
 *************************************
DYNAMICS OPTION: Eulerian Mass Coordinate
   alloc_space_field: domain            1 ,              203623800  bytes allocated
  med_initialdata_input: calling input_input
Max map factor in domain 1 =  1.40. Scale the dt in the model accordingly.
INPUT LandUse = "USGS"
 LANDUSE TYPE = "USGS" FOUND          33  CATEGORIES           2  SEASONS WATER CATEGORY =           16  SNOW CATEGORY =           24
INITIALIZE THREE Noah LSM RELATED TABLES
*****************************************************************
  __          _______  ______       _____  _____ _    _ _____
  \ \        / /  __ \|  ____|     / ____|/ ____| |  | |  __ \
   \ \  /\  / /| |__) | |__ ______| |  __| |    | |__| | |__) |
    \ \/  \/ / |  _  /|  __|______| | |_ | |    |  __  |  ___/
     \  /\  /  | | \ \| |         | |__| | |____| |  | | |
      \/  \/   |_|  \_\_|          \_____|\_____|_|  |_|_|
*****************************************************************
         WRF-GC MODEL, VERSION 1811.11 - WRF BINDINGS
 For errors, suggestions & feedback email linhaipeng@pku.edu.cn
*****************************************************************
    This is domain            1
 ### GIGC_Stateful_Mod: Root CPU, after READ_INPUT_FILE
  Linoz Data:  O3 climatology :                  z*=10, 12, ..., 58                             2.700E-08 1.083E-05
  Linoz Data:  Temperature climatology :         z*=10, 12, ..., 58                             1.859E+02 2.904E+02
  Linoz Data:  Column O3 above box climalology : z*=10, 12, ..., 58                             7.538E-02 3.770E+02
  Linoz Data:  P-L O3 climatology (mr/s):        z*=10, 12, ..., 58                            -1.590E-10 2.835E-11
  Linoz Data:  d(P-L)/dO3 (1/s) :                z*=10, 12, ..., 58                            -8.386E-04 7.556E-09
  Linoz Data:  d(P-L)/dT (mr/K) :                z*=10, 12, ..., 58                            -5.742E-12 4.615E-14
  Linoz Data:  d(P-L)/d(column O3) (mr/DU) :     z*=10, 12, ..., 58                            -1.921E-12 5.038E-10
 ### GIGC_Stateful_Mod: Root CPU, after LINOZ_READ
 %%%%%%%%% GIGC IN-PET GRID SWITCHING HACKS %%%%%%%%%
     (Not very) Proudly brought to you by hplin      
 Some debug information:
 ID:           1
 IM, JM, LM:          15           9          49  will be set as PAR
 Allocs: CMN T GC F
 RC at entry-point:           0
 %%%%%%%%%%%%%%%%%%%%%%%%%%%%%%%%%%%%%%%%%%%%%%%%%%%%
 No need to switch HcoState for ID           1
 Exit RC:            0
 %%%%%%%%%    FINISHED GIGC_Switch_Dims    %%%%%%%%%
 GIGC_Chunk_Init: Received new grid IM, JM, LM =          15           9
          49
     ### GIGC_INIT_SIMULATION: after Input_Opt% setups
     ### GIGC_INIT_SIMULATION: after GC_Init_All
     ### GIGC_INIT_SIMULATION: after GC_Init_Extra
     ### GIGC_INIT_SIMULATION: after INIT_FJX
 # GIGC_CHUNK_MOD: after SV save, ID =           1
 WRFGC chemics_init: Following information regarding Input_Opt% (for all doms)
 After domain           1
 HPC:  T
 LPRT:  F
 DoConv:  T
 DoDryDep:  T
 DoEmis:  T
 DoChem:  T
 DoTurb:  T
 DoWetDep:  T

 tropopause_init: DONE intialized domain            1

 mediation_integrate: med_read_wrf_chem_emissions: Open file wrfchemi_00z_d01
 HOURLY EMISSIONS UPDATE TIME        0.0       0.0
mediation_integrate: med_read_wrf_chem_emissions: Read emissions for time 2018-01-01_00:00:00
open_aux_u : error opening wrffirechemi_d01_2018-01-01_00:00:00 for reading. 100
open_aux_u : error opening wrfchemi_gocart_bg_d01 for reading. 100
d01 2018-01-01_00:00:00 Input data processed for aux input   8 for domain   1
open_aux_u : error opening wrfchemv_d01 for reading. 100
 Tile Strategy is not specified. Assuming 1D-Y
WRF TILE   1 IS    106 IE    120 JS    614 JE    622
WRF NUMBER OF TILES =   1
 max optd  3.1949524E+13
 max taucldi  0.0000000E+00
 max taucldw  0.0000000E+00
 =================================================
 W R F - G C   T I M E R S
    Domain           1 (Units: s)
 =================================================
  => Coupler Component                       0.032
   -- Physics & Parameterization             0.001
   -- Diagnostics Out                        0.000
  => GEOS-Chem Column                        0.000
  ===> Total Chemistry                       0.032
  => WRF                                     0.000
  ===> Total WRF-GC                          0.032
 max optd  3.1949524E+13
 max taucldi  1.0000007E-14
 max taucldw  1.0000007E-14
 %%%%%%%%% GIGC IN-PET GRID SWITCHING HACKS %%%%%%%%%
     (Not very) Proudly brought to you by hplin      
 Some debug information:
 ID:           1
 IM, JM, LM:          15           9          49  will be set as PAR
 Allocs: CMN T GC T
 RC at entry-point:           0
 %%%%%%%%%%%%%%%%%%%%%%%%%%%%%%%%%%%%%%%%%%%%%%%%%%%%
 No need to switch HcoState for ID           1
 Debug HcoState nSpc, NX, NY, NZ         163          15           9          49
 Exit RC:            0
 %%%%%%%%%    FINISHED GIGC_Switch_Dims    %%%%%%%%%
 GIGC_Chunk_Run: Running for in-PET grid #           1
 GIGC_Chunk_Run: Received new grid IM, JM, LM =          15           9
          49
HEMCO: Opening /fsx/HEMCO/BIOFUEL/v2014-07/biofuel.geos.4x5.nc
HEMCO: Opening /fsx/HEMCO/BROMINE/v2015-02/Bromocarb_Liang2010.nc
HEMCO: Opening /fsx/HEMCO/ACET/v2014-07/ACET_seawater.generic.1x1.nc
HEMCO: Opening /fsx/HEMCO/SOILNOX/v2014-07/DepReservoirDefault.nc
HEMCO: Opening /fsx/HEMCO/SOILNOX/v2014-07/soilNOx.landtype.generic.025x025.1L.nc
HEMCO: Opening /fsx/HEMCO/SOILNOX/v2014-07/soilNOx.climate.generic.05x05.nc
HEMCO: Opening /fsx/HEMCO/DUST_DEAD/v2014-07/dst_tibds.geos.4x5.nc
HEMCO: Opening /fsx/HEMCO/DUST_DEAD/v2014-07/GOCART_src_fn.geos.4x5.nc
HEMCO: Opening /fsx/HEMCO/MEGAN/v2018-05/MEGAN2.1_EF.geos.025x03125.nc
HEMCO: Opening /fsx/HEMCO/MEGAN/v2017-07/CLM4_PFT.geos.025x03125.nc
HEMCO: Opening /fsx/HEMCO/TIMEZONES/v2015-02/timezones_voronoi_1x1.nc
HEMCO: Opening /fsx/HEMCO/STRAT/v2015-01/Bry/GEOSCCM_Bry.200701.day.nc
HEMCO: Opening /fsx/HEMCO/STRAT/v2015-01/Bry/GEOSCCM_Bry.200701.night.nc
HEMCO: Opening /fsx/HEMCO/OMOC/v2018-01/OMOC.DJF.01x01.nc
HEMCO: Opening /fsx/HEMCO/OMOC/v2018-01/OMOC.MAM.01x01.nc
HEMCO: Opening /fsx/HEMCO/OMOC/v2018-01/OMOC.JJA.01x01.nc
HEMCO: Opening /fsx/HEMCO/OMOC/v2018-01/OMOC.SON.01x01.nc
HEMCO: Opening /fsx/HEMCO/AnnualScalar/v2014-07/AnnualScalar.geos.1x1.nc
HEMCO: Opening /fsx/HEMCO/EDGARv42/v2015-02/NO/EDGAR_hourly_NOxScal.nc
HEMCO: Opening /fsx/HEMCO/MASKS/v2018-09/EMEP_mask.geos.1x1.20151222.nc
HEMCO: Opening /fsx/HEMCO/MASKS/v2018-09/Canada_mask.geos.1x1.nc
HEMCO: Opening /fsx/HEMCO/MASKS/v2018-09/SE_Asia_mask.generic.1x1.nc
HEMCO: Opening /fsx/HEMCO/MASKS/v2018-09/MIX_Asia_mask.generic.025x025.nc
HEMCO: Opening /fsx/HEMCO/MASKS/v2018-09/CONUS_Mask.01x01.nc
HEMCO: Opening /fsx/HEMCO/MASKS/v2018-09/AF_LANDMASK.geos.05x0666.global.nc
HEMCO: Opening /fsx/HEMCO/MASKS/v2018-09/China_mask.generic.1x1.nc
HEMCO: Opening /fsx/HEMCO/MASKS/v2018-09/India_mask.generic.1x1.nc
HEMCO: Opening /fsx/HEMCO/AnnualScalar/v2014-07/AnnualScalar.geos.1x1.nc
HEMCO: Opening /fsx/HEMCO/NH3/v2014-07/NH3_geos.4x5.nc
HEMCO: Opening /fsx/HEMCO/NH3/v2018-04/NH3_Arctic_seabirds.nc
HEMCO: Opening /fsx/HEMCO/CEDS/v2018-08/2014/NO-em-anthro_CMIP_CEDS_2014.nc
HEMCO: Opening /fsx/HEMCO/CEDS/v2018-08/2014/CO-em-anthro_CMIP_CEDS_2014.nc
HEMCO: Opening /fsx/HEMCO/CEDS/v2018-08/2014/SO2-em-anthro_CMIP_CEDS_2014.nc
HEMCO: Opening /fsx/HEMCO/CEDS/v2018-08/2014/NH3-em-anthro_CMIP_CEDS_2014.nc
HEMCO: Opening /fsx/HEMCO/CEDS/v2018-08/2014/BC-em-anthro_CMIP_CEDS_2014.nc
HEMCO: Opening /fsx/HEMCO/CEDS/v2018-08/2014/OC-em-anthro_CMIP_CEDS_2014.nc
HEMCO: Opening /fsx/HEMCO/CEDS/v2018-08/2014/EOH-em-anthro_CMIP_CEDS_2014.nc
HEMCO: Opening /fsx/HEMCO/CEDS/v2018-08/2014/C2H6-em-anthro_CMIP_CEDS_2014.nc
HEMCO: Opening /fsx/HEMCO/CEDS/v2018-08/2014/C3H8-em-anthro_CMIP_CEDS_2014.nc
HEMCO: Opening /fsx/HEMCO/CEDS/v2018-08/2014/ALK4_butanes-em-anthro_CMIP_CEDS_2014.nc
HEMCO: Opening /fsx/HEMCO/CEDS/v2018-08/2014/ALK4_pentanes-em-anthro_CMIP_CEDS_2014.nc
HEMCO: Opening /fsx/HEMCO/CEDS/v2018-08/2014/ALK4_hexanes-em-anthro_CMIP_CEDS_2014.nc
HEMCO: Opening /fsx/HEMCO/CEDS/v2018-08/2014/PRPE-em-anthro_CMIP_CEDS_2014.nc
HEMCO: Opening /fsx/HEMCO/CEDS/v2018-08/2014/BENZ-em-anthro_CMIP_CEDS_2014.nc
HEMCO: Opening /fsx/HEMCO/CEDS/v2018-08/2014/TOLU-em-anthro_CMIP_CEDS_2014.nc
HEMCO: Opening /fsx/HEMCO/CEDS/v2018-08/2014/XYLE-em-anthro_CMIP_CEDS_2014.nc
HEMCO: Opening /fsx/HEMCO/CEDS/v2018-08/2014/CH2O-em-anthro_CMIP_CEDS_2014.nc
HEMCO: Opening /fsx/HEMCO/CEDS/v2018-08/2014/ALD2-em-anthro_CMIP_CEDS_2014.nc
HEMCO: Opening /fsx/HEMCO/CEDS/v2018-08/2014/MEK-em-anthro_CMIP_CEDS_2014.nc
HEMCO: Opening /fsx/HEMCO/CEDS/v2018-08/2014/HCOOH-em-anthro_CMIP_CEDS_2014.nc
HEMCO: Opening /fsx/HEMCO/C2H6_2010/v2017-05/C2H6_global_anth_biof.201001.nc
HEMCO: Opening /fsx/HEMCO/NEI2011/v2017-02-MM/01/NEI11_0.1x0.1_201101_monmean.nc
HEMCO: Opening /fsx/HEMCO/NEI2011/v2017-02-MM/01/NEI11_0.1x0.1_201101_monmean_egu.nc
HEMCO: Opening /fsx/HEMCO/NEI2011/v2017-02-MM/01/NEI11_0.1x0.1_201101_monmean_egupk.nc
HEMCO: Opening /fsx/HEMCO/NEI2011/v2017-02-MM/01/NEI11_0.1x0.1_201101_monmean_oilgas.nc
HEMCO: Opening /fsx/HEMCO/NEI2011/v2017-02-MM/01/NEI11_0.1x0.1_201101_monmean_othpt.nc
HEMCO: Opening /fsx/HEMCO/NEI2011/v2017-02-MM/01/NEI11_0.1x0.1_201101_monmean_ptnonipm.nc
HEMCO: Opening /fsx/HEMCO/IODINE/v2017-09/CH3I_monthly_emissions_Ordonez_2012_COARDS.nc
HEMCO: Opening /fsx/HEMCO/IODINE/v2017-09/CH2I2_monthly_emissions_Ordonez_2012_COARDS.nc
HEMCO: Opening /fsx/HEMCO/IODINE/v2017-09/CH2ICl_monthly_emissions_Ordonez_2012_COARDS.nc
HEMCO: Opening /fsx/HEMCO/IODINE/v2017-09/CH2IBr_monthly_emissions_Ordonez_2012_COARDS.nc
HEMCO: Opening /fsx/HEMCO/CEDS/v2018-08/2014/CO-em-anthro_CMIP_CEDS_2014.nc
HEMCO: Opening /fsx/HEMCO/CEDS/v2018-08/2014/SO2-em-anthro_CMIP_CEDS_2014.nc
HEMCO: Opening /fsx/HEMCO/CEDS/v2018-08/2014/NH3-em-anthro_CMIP_CEDS_2014.nc
HEMCO: Opening /fsx/HEMCO/CEDS/v2018-08/2014/BC-em-anthro_CMIP_CEDS_2014.nc
HEMCO: Opening /fsx/HEMCO/CEDS/v2018-08/2014/OC-em-anthro_CMIP_CEDS_2014.nc
HEMCO: Opening /fsx/HEMCO/CEDS/v2018-08/2014/EOH-em-anthro_CMIP_CEDS_2014.nc
HEMCO: Opening /fsx/HEMCO/CEDS/v2018-08/2014/C2H6-em-anthro_CMIP_CEDS_2014.nc
HEMCO: Opening /fsx/HEMCO/CEDS/v2018-08/2014/C3H8-em-anthro_CMIP_CEDS_2014.nc
HEMCO: Opening /fsx/HEMCO/CEDS/v2018-08/2014/ALK4_butanes-em-anthro_CMIP_CEDS_2014.nc
HEMCO: Opening /fsx/HEMCO/CEDS/v2018-08/2014/ALK4_pentanes-em-anthro_CMIP_CEDS_2014.nc
HEMCO: Opening /fsx/HEMCO/CEDS/v2018-08/2014/ALK4_hexanes-em-anthro_CMIP_CEDS_2014.nc
HEMCO: Opening /fsx/HEMCO/CEDS/v2018-08/2014/PRPE-em-anthro_CMIP_CEDS_2014.nc
HEMCO: Opening /fsx/HEMCO/CEDS/v2018-08/2014/BENZ-em-anthro_CMIP_CEDS_2014.nc
HEMCO: Opening /fsx/HEMCO/CEDS/v2018-08/2014/TOLU-em-anthro_CMIP_CEDS_2014.nc
HEMCO: Opening /fsx/HEMCO/CEDS/v2018-08/2014/XYLE-em-anthro_CMIP_CEDS_2014.nc
HEMCO: Opening /fsx/HEMCO/CEDS/v2018-08/2014/CH2O-em-anthro_CMIP_CEDS_2014.nc
HEMCO: Opening /fsx/HEMCO/CEDS/v2018-08/2014/ALD2-em-anthro_CMIP_CEDS_2014.nc
HEMCO: Opening /fsx/HEMCO/CEDS/v2018-08/2014/MEK-em-anthro_CMIP_CEDS_2014.nc
HEMCO: Opening /fsx/HEMCO/CEDS/v2018-08/2014/HCOOH-em-anthro_CMIP_CEDS_2014.nc
HEMCO: Opening /fsx/HEMCO/CEDS/v2018-08/2014/NO-em-anthro_CMIP_CEDS_2014.nc
HEMCO: Opening /fsx/HEMCO/AEIC/v2015-01/AEIC.47L.gen.1x1.nc
HEMCO: Opening /fsx/HEMCO/ALD2/v2017-03/resp.geos.2x25.nc
HEMCO: Opening /fsx/HEMCO/DMS/v2015-07/DMS_lana.geos.1x1.nc
HEMCO: Opening /fsx/HEMCO/ALD2/v2017-03/ALD2_seawater.geos.2x25.nc
HEMCO: Opening /fsx/HEMCO/DUST_DEAD/v2014-07/dst_tvbds.geos.4x5.nc
HEMCO: Opening /fsx/HEMCO/DUST_DEAD/v2018-04/PM25FINE_ECLIPSE_2015.geos.2x25.nc
HEMCO: Opening /fsx/HEMCO/SOA/v2014-07/NVOC.geos.1x1.nc
HEMCO: Opening /fsx/HEMCO/GFED4/v2015-10/2016/GFED4_gen.025x025.201601.nc
HEMCO: Opening /fsx/HEMCO/UVALBEDO/v2015-03/uvalbedo.geos.2x25.nc
HEMCO: Opening /fsx/HEMCO/GMI/v2015-02/gmi.clim.ACET.geos5.2x25.nc
HEMCO: Opening /fsx/HEMCO/GMI/v2015-02/gmi.clim.ACTA.geos5.2x25.nc
HEMCO: Opening /fsx/HEMCO/GMI/v2015-02/gmi.clim.ALD2.geos5.2x25.nc
HEMCO: Opening /fsx/HEMCO/GMI/v2015-02/gmi.clim.ALK4.geos5.2x25.nc
HEMCO: Opening /fsx/HEMCO/GMI/v2015-02/gmi.clim.C2H6.geos5.2x25.nc
HEMCO: Opening /fsx/HEMCO/GMI/v2015-02/gmi.clim.C3H8.geos5.2x25.nc
HEMCO: Opening /fsx/HEMCO/GMI/v2015-02/gmi.clim.CCl4.geos5.2x25.nc
HEMCO: Opening /fsx/HEMCO/GMI/v2015-02/gmi.clim.CF2Cl2.geos5.2x25.nc
HEMCO: Opening /fsx/HEMCO/GMI/v2015-02/gmi.clim.CF2ClBr.geos5.2x25.nc
HEMCO: Opening /fsx/HEMCO/GMI/v2015-02/gmi.clim.CFC113.geos5.2x25.nc
HEMCO: Opening /fsx/HEMCO/GMI/v2015-02/gmi.clim.CFC114.geos5.2x25.nc
HEMCO: Opening /fsx/HEMCO/GMI/v2015-02/gmi.clim.CFC115.geos5.2x25.nc
HEMCO: Opening /fsx/HEMCO/GMI/v2015-02/gmi.clim.CFCl3.geos5.2x25.nc
HEMCO: Opening /fsx/HEMCO/GMI/v2015-02/gmi.clim.CH2O.geos5.2x25.nc
HEMCO: Opening /fsx/HEMCO/GMI/v2015-02/gmi.clim.CH3CCl3.geos5.2x25.nc
HEMCO: Opening /fsx/HEMCO/GMI/v2015-02/gmi.clim.CH3Cl.geos5.2x25.nc
HEMCO: Opening /fsx/HEMCO/GMI/v2015-02/gmi.clim.CH4.geos5.2x25.nc
HEMCO: Opening /fsx/HEMCO/GMI/v2015-02/gmi.clim.CO.geos5.2x25.nc
HEMCO: Opening /fsx/HEMCO/GMI/v2015-02/gmi.clim.Cl.geos5.2x25.nc
HEMCO: Opening /fsx/HEMCO/GMI/v2015-02/gmi.clim.Cl2.geos5.2x25.nc
HEMCO: Opening /fsx/HEMCO/GMI/v2015-02/gmi.clim.Cl2O2.geos5.2x25.nc
HEMCO: Opening /fsx/HEMCO/GMI/v2015-02/gmi.clim.ClO.geos5.2x25.nc
HEMCO: Opening /fsx/HEMCO/GMI/v2015-02/gmi.clim.EOH.geos5.2x25.nc
HEMCO: Opening /fsx/HEMCO/GMI/v2015-02/gmi.clim.GLYC.geos5.2x25.nc
HEMCO: Opening /fsx/HEMCO/GMI/v2015-02/gmi.clim.GLYX.geos5.2x25.nc
HEMCO: Opening /fsx/HEMCO/GMI/v2015-02/gmi.clim.H2402.geos5.2x25.nc
HEMCO: Opening /fsx/HEMCO/GMI/v2015-02/gmi.clim.H2O.geos5.2x25.nc
HEMCO: Opening /fsx/HEMCO/GMI/v2015-02/gmi.clim.H2O2.geos5.2x25.nc
HEMCO: Opening /fsx/HEMCO/GMI/v2015-02/gmi.clim.HAC.geos5.2x25.nc
HEMCO: Opening /fsx/HEMCO/GMI/v2015-02/gmi.clim.HCFC141b.geos5.2x25.nc
HEMCO: Opening /fsx/HEMCO/GMI/v2015-02/gmi.clim.HCFC142b.geos5.2x25.nc
HEMCO: Opening /fsx/HEMCO/GMI/v2015-02/gmi.clim.HCFC22.geos5.2x25.nc
HEMCO: Opening /fsx/HEMCO/GMI/v2015-02/gmi.clim.HCOOH.geos5.2x25.20170108.nc
HEMCO: Opening /fsx/HEMCO/GMI/v2015-02/gmi.clim.HCl.geos5.2x25.nc
HEMCO: Opening /fsx/HEMCO/GMI/v2015-02/gmi.clim.HNO2.geos5.2x25.nc
HEMCO: Opening /fsx/HEMCO/GMI/v2015-02/gmi.clim.HNO3.geos5.2x25.nc
HEMCO: Opening /fsx/HEMCO/GMI/v2015-02/gmi.clim.HNO4.geos5.2x25.nc
HEMCO: Opening /fsx/HEMCO/GMI/v2015-02/gmi.clim.HOCl.geos5.2x25.nc
HEMCO: Opening /fsx/HEMCO/GMI/v2015-02/gmi.clim.ISN1.geos5.2x25.nc
HEMCO: Opening /fsx/HEMCO/GMI/v2015-02/gmi.clim.ISOP.geos5.2x25.nc
HEMCO: Opening /fsx/HEMCO/GMI/v2015-02/gmi.clim.MACR.geos5.2x25.nc
HEMCO: Opening /fsx/HEMCO/GMI/v2015-02/gmi.clim.MAP.geos5.2x25.nc
HEMCO: Opening /fsx/HEMCO/GMI/v2015-02/gmi.clim.MEK.geos5.2x25.nc
HEMCO: Opening /fsx/HEMCO/GMI/v2015-02/gmi.clim.MGLY.geos5.2x25.nc
HEMCO: Opening /fsx/HEMCO/GMI/v2015-02/gmi.clim.MP.geos5.2x25.nc
HEMCO: Opening /fsx/HEMCO/GMI/v2015-02/gmi.clim.MVK.geos5.2x25.nc
HEMCO: Opening /fsx/HEMCO/GMI/v2015-02/gmi.clim.N2O.geos5.2x25.nc
HEMCO: Opening /fsx/HEMCO/GMI/v2015-02/gmi.clim.N2O5.geos5.2x25.nc
HEMCO: Opening /fsx/HEMCO/GMI/v2015-02/gmi.clim.NO.geos5.2x25.nc
HEMCO: Opening /fsx/HEMCO/GMI/v2015-02/gmi.clim.NO2.geos5.2x25.nc
HEMCO: Opening /fsx/HEMCO/GMI/v2015-02/gmi.clim.NO3.geos5.2x25.nc
HEMCO: Opening /fsx/HEMCO/GMI/v2015-02/gmi.clim.O3.geos5.2x25.nc
HEMCO: Opening /fsx/HEMCO/GMI/v2015-02/gmi.clim.OClO.geos5.2x25.nc
HEMCO: Opening /fsx/HEMCO/GMI/v2015-02/gmi.clim.PAN.geos5.2x25.nc
HEMCO: Opening /fsx/HEMCO/GMI/v2015-02/gmi.clim.NPMN.geos5.2x25.nc
HEMCO: Opening /fsx/HEMCO/GMI/v2015-02/gmi.clim.IPMN.geos5.2x25.nc
HEMCO: Opening /fsx/HEMCO/GMI/v2015-02/gmi.clim.PPN.geos5.2x25.nc
HEMCO: Opening /fsx/HEMCO/GMI/v2015-02/gmi.clim.PRPE.geos5.2x25.nc
HEMCO: Opening /fsx/HEMCO/GMI/v2015-02/gmi.clim.R4N2.geos5.2x25.nc
HEMCO: Opening /fsx/HEMCO/GMI/v2015-02/gmi.clim.RCHO.geos5.2x25.nc
HEMCO: Opening /fsx/HEMCO/GMI/v2015-02/gmi.clim.RIPA.geos5.2x25.nc
HEMCO: Opening /fsx/HEMCO/GMI/v2015-02/gmi.clim.RIPB.geos5.2x25.nc
HEMCO: Opening /fsx/HEMCO/GMI/v2015-02/gmi.clim.RIPD.geos5.2x25.nc
HEMCO: Opening /fsx/HEMCO/GMI/v2015-02/gmi.clim.OH.geos5.2x25.nc
HEMCO: Opening /fsx/HEMCO/NOAA_GMD/v2018-01/monthly.gridded.surface.methane.1979-2020.1x1.nc
HEMCO: Opening /fsx/HEMCO/GEIA/v2014-07/GEIA_monthscal.generic.1x1.nc
HEMCO: Opening /fsx/HEMCO/EMEP/v2015-03/EMEP.Seasonal.geos.1x1.nc
HEMCO: Opening /fsx/HEMCO/BROMINE/v2015-02/BromoCarb_Season.nc
HEMCO: Opening /fsx/HEMCO/EDGARv43/v2016-11/EDGAR_v43.Seasonal.1x1.nc
HEMCO: Opening /fsx/HEMCO/NEI2005/v2014-09/scaling/NEI99.dow.geos.1x1.nc
HEMCO: Opening /fsx/HEMCO/VOLCANO/v2015-02/2009/volc_so2_gen.1x1.47L.200901.nc
HEMCO: Opening /fsx/HEMCO/SOILNOX/v2014-07/soilNOx.fert_res.generic.05x05.nc
 vdinti: pbl height will be limited to bottom           25  model levels. top is
     431.250100000000       hpa
 =================================================
 W R F - G C   T I M E R S
    Domain           1 (Units: s)
 =================================================
  => Coupler Component                       0.054
   -- Physics & Parameterization             0.009
   -- Diagnostics Out                        0.000
  => GEOS-Chem Column                       84.920
  ===> Total Chemistry                      84.974
  => WRF                                    17.403
  ===> Total WRF-GC                        102.378
 max optd  1.9364301E+31
 max taucldi  4.9817803E-08
 max taucldw  5.1617715E-08
 Switching is not necessary as we are already
 in the right domain!
 GIGC_Chunk_Run: Running for in-PET grid #           1
 GIGC_Chunk_Run: Received new grid IM, JM, LM =          15           9
          49
 =================================================
 W R F - G C   T I M E R S
    Domain           1 (Units: s)
 =================================================
  => Coupler Component                       0.085
   -- Physics & Parameterization             0.019
   -- Diagnostics Out                        0.000
  => GEOS-Chem Column                       86.144
  ===> Total Chemistry                      86.229
  => WRF                                   106.101
  ===> Total WRF-GC                        192.330
 max optd  1.9364301E+31
 max taucldi  9.8161351E-08
 max taucldw  1.0144468E-07
 Switching is not necessary as we are already
 in the right domain!
 GIGC_Chunk_Run: Running for in-PET grid #           1
 GIGC_Chunk_Run: Received new grid IM, JM, LM =          15           9
          49
 =================================================
 W R F - G C   T I M E R S
    Domain           1 (Units: s)
 =================================================
  => Coupler Component                       0.120
   -- Physics & Parameterization             0.028
   -- Diagnostics Out                        0.000
  => GEOS-Chem Column                       87.301
  ===> Total Chemistry                      87.421
  => WRF                                   126.709
  ===> Total WRF-GC                        214.130
 max optd  1.9364301E+31
 max taucldi  1.4426345E-07
 max taucldw  1.4850372E-07
 Switching is not necessary as we are already
 in the right domain!
 GIGC_Chunk_Run: Running for in-PET grid #           1
 GIGC_Chunk_Run: Received new grid IM, JM, LM =          15           9
          49
 =================================================
 W R F - G C   T I M E R S
    Domain           1 (Units: s)
 =================================================
  => Coupler Component                       0.152
   -- Physics & Parameterization             0.037
   -- Diagnostics Out                        0.000
  => GEOS-Chem Column                       88.425
  ===> Total Chemistry                      88.577
  => WRF                                   145.647
  ===> Total WRF-GC                        234.223
 max optd  1.9364301E+31
 max taucldi  1.8968638E-07
 max taucldw  1.8688971E-07
 Switching is not necessary as we are already
 in the right domain!
 GIGC_Chunk_Run: Running for in-PET grid #           1
 GIGC_Chunk_Run: Received new grid IM, JM, LM =          15           9
          49
 =================================================
 W R F - G C   T I M E R S
    Domain           1 (Units: s)
 =================================================
  => Coupler Component                       0.188
   -- Physics & Parameterization             0.047
   -- Diagnostics Out                        0.000
  => GEOS-Chem Column                       89.558
  ===> Total Chemistry                      89.746
  => WRF                                   164.152
  ===> Total WRF-GC                        253.898
 max optd  1.9364301E+31
 max taucldi  2.3513095E-07
 max taucldw  2.3446799E-07
 Switching is not necessary as we are already
 in the right domain!
 GIGC_Chunk_Run: Running for in-PET grid #           1
 GIGC_Chunk_Run: Received new grid IM, JM, LM =          15           9
          49
 =================================================
 W R F - G C   T I M E R S
    Domain           1 (Units: s)
 =================================================
  => Coupler Component                       0.222
   -- Physics & Parameterization             0.056
   -- Diagnostics Out                        0.000
  => GEOS-Chem Column                       90.756
  ===> Total Chemistry                      90.978
  => WRF                                   182.531
  ===> Total WRF-GC                        273.509
 max optd  1.9364301E+31
 max taucldi  2.7314317E-07
 max taucldw  2.7948261E-07
 Switching is not necessary as we are already
 in the right domain!
 GIGC_Chunk_Run: Running for in-PET grid #           1
 GIGC_Chunk_Run: Received new grid IM, JM, LM =          15           9
          49
 =================================================
 W R F - G C   T I M E R S
    Domain           1 (Units: s)
 =================================================
  => Coupler Component                       0.249
   -- Physics & Parameterization             0.065
   -- Diagnostics Out                        0.000
  => GEOS-Chem Column                       91.889
  ===> Total Chemistry                      92.138
  => WRF                                   200.844
  ===> Total WRF-GC                        292.982
 max optd  1.9364301E+31
 max taucldi  3.1022196E-07
 max taucldw  3.1600462E-07
 Switching is not necessary as we are already
 in the right domain!
 GIGC_Chunk_Run: Running for in-PET grid #           1
 GIGC_Chunk_Run: Received new grid IM, JM, LM =          15           9
          49
 =================================================
 W R F - G C   T I M E R S
    Domain           1 (Units: s)
 =================================================
  => Coupler Component                       0.282
   -- Physics & Parameterization             0.074
   -- Diagnostics Out                        0.000
  => GEOS-Chem Column                       93.022
  ===> Total Chemistry                      93.304
  => WRF                                   219.133
  ===> Total WRF-GC                        312.437
 max optd  1.9364301E+31
 max taucldi  3.6561730E-07
 max taucldw  3.5636106E-07
 Switching is not necessary as we are already
 in the right domain!
 GIGC_Chunk_Run: Running for in-PET grid #           1
 GIGC_Chunk_Run: Received new grid IM, JM, LM =          15           9
          49
 =================================================
 W R F - G C   T I M E R S
    Domain           1 (Units: s)
 =================================================
  => Coupler Component                       0.312
   -- Physics & Parameterization             0.083
   -- Diagnostics Out                        0.000
  => GEOS-Chem Column                       94.105
  ===> Total Chemistry                      94.417
  => WRF                                   237.460
  ===> Total WRF-GC                        331.877
 max optd  1.9364301E+31
 max taucldi  4.1081242E-07
 max taucldw  3.9939181E-07
 Switching is not necessary as we are already
 in the right domain!
 GIGC_Chunk_Run: Running for in-PET grid #           1
 GIGC_Chunk_Run: Received new grid IM, JM, LM =          15           9
          49
 =================================================
 W R F - G C   T I M E R S
    Domain           1 (Units: s)
 =================================================
  => Coupler Component                       0.349
   -- Physics & Parameterization             0.092
   -- Diagnostics Out                        0.000
  => GEOS-Chem Column                       95.137
  ===> Total Chemistry                      95.486
  => WRF                                   255.849
  ===> Total WRF-GC                        351.335
 max optd  1.9364301E+31
 max taucldi  4.3532293E-07
 max taucldw  4.2223760E-07
 Switching is not necessary as we are already
 in the right domain!
 GIGC_Chunk_Run: Running for in-PET grid #           1
 GIGC_Chunk_Run: Received new grid IM, JM, LM =          15           9
          49
 =================================================
 W R F - G C   T I M E R S
    Domain           1 (Units: s)
 =================================================
  => Coupler Component                       0.382
   -- Physics & Parameterization             0.102
   -- Diagnostics Out                        0.000
  => GEOS-Chem Column                       96.186
  ===> Total Chemistry                      96.568
  => WRF                                   274.222
  ===> Total WRF-GC                        370.790
 max optd  1.9364301E+31
 max taucldi  4.3535260E-07
 max taucldw  4.2139536E-07
 Switching is not necessary as we are already
 in the right domain!
 GIGC_Chunk_Run: Running for in-PET grid #           1
 GIGC_Chunk_Run: Received new grid IM, JM, LM =          15           9
          49
 =================================================
 W R F - G C   T I M E R S
    Domain           1 (Units: s)
 =================================================
  => Coupler Component                       0.418
   -- Physics & Parameterization             0.111
   -- Diagnostics Out                        0.000
  => GEOS-Chem Column                       97.218
  ===> Total Chemistry                      97.636
  => WRF                                   292.478
  ===> Total WRF-GC                        390.114
 HOURLY EMISSIONS UPDATE TIME     3600.0       0.0
mediation_integrate: med_read_wrf_chem_emissions: Read emissions for time 2018-01-01_01:00:00
 max optd  1.9364301E+31
 max taucldi  4.4129766E-07
 max taucldw  4.3324678E-07
 Switching is not necessary as we are already
 in the right domain!
 GIGC_Chunk_Run: Running for in-PET grid #           1
 GIGC_Chunk_Run: Received new grid IM, JM, LM =          15           9
          49
 =================================================
 W R F - G C   T I M E R S
    Domain           1 (Units: s)
 =================================================
  => Coupler Component                       0.456
   -- Physics & Parameterization             0.120
   -- Diagnostics Out                        0.000
  => GEOS-Chem Column                       98.244
  ===> Total Chemistry                      98.700
  => WRF                                   310.817
  ===> Total WRF-GC                        409.517
 max optd  1.9364301E+31
 max taucldi  4.4811046E-07
 max taucldw  4.6049419E-07
 Switching is not necessary as we are already
 in the right domain!
 GIGC_Chunk_Run: Running for in-PET grid #           1
 GIGC_Chunk_Run: Received new grid IM, JM, LM =          15           9
          49
 =================================================
 W R F - G C   T I M E R S
    Domain           1 (Units: s)
 =================================================
  => Coupler Component                       0.494
   -- Physics & Parameterization             0.129
   -- Diagnostics Out                        0.000
  => GEOS-Chem Column                       99.278
  ===> Total Chemistry                      99.771
  => WRF                                   329.155
  ===> Total WRF-GC                        428.927
 max optd  1.9364301E+31
 max taucldi  4.4585116E-07
 max taucldw  4.9775269E-07
 Switching is not necessary as we are already
 in the right domain!
 GIGC_Chunk_Run: Running for in-PET grid #           1
 GIGC_Chunk_Run: Received new grid IM, JM, LM =          15           9
          49
 =================================================
 W R F - G C   T I M E R S
    Domain           1 (Units: s)
 =================================================
  => Coupler Component                       0.532
   -- Physics & Parameterization             0.138
   -- Diagnostics Out                        0.000
  => GEOS-Chem Column                      100.305
  ===> Total Chemistry                     100.837
  => WRF                                   347.362
  ===> Total WRF-GC                        448.199
 max optd  1.9364301E+31
 max taucldi  4.3514436E-07
 max taucldw  5.3786891E-07
 Switching is not necessary as we are already
 in the right domain!
 GIGC_Chunk_Run: Running for in-PET grid #           1
 GIGC_Chunk_Run: Received new grid IM, JM, LM =          15           9
          49
 =================================================
 W R F - G C   T I M E R S
    Domain           1 (Units: s)
 =================================================
  => Coupler Component                       0.570
   -- Physics & Parameterization             0.148
   -- Diagnostics Out                        0.000
  => GEOS-Chem Column                      101.339
  ===> Total Chemistry                     101.909
  => WRF                                   365.665
  ===> Total WRF-GC                        467.574
 max optd  1.9364301E+31
 max taucldi  4.1732818E-07
 max taucldw  5.7304419E-07
 Switching is not necessary as we are already
 in the right domain!
 GIGC_Chunk_Run: Running for in-PET grid #           1
 GIGC_Chunk_Run: Received new grid IM, JM, LM =          15           9
          49
 =================================================
 W R F - G C   T I M E R S
    Domain           1 (Units: s)
 =================================================
  => Coupler Component                       0.602
   -- Physics & Parameterization             0.157
   -- Diagnostics Out                        0.000
  => GEOS-Chem Column                      102.368
  ===> Total Chemistry                     102.970
  => WRF                                   383.920
  ===> Total WRF-GC                        486.890
 max optd  1.9364301E+31
 max taucldi  4.0429609E-07
 max taucldw  6.0075268E-07
 Switching is not necessary as we are already
 in the right domain!
 GIGC_Chunk_Run: Running for in-PET grid #           1
 GIGC_Chunk_Run: Received new grid IM, JM, LM =          15           9
          49
 =================================================
 W R F - G C   T I M E R S
    Domain           1 (Units: s)
 =================================================
  => Coupler Component                       0.634
   -- Physics & Parameterization             0.166
   -- Diagnostics Out                        0.000
  => GEOS-Chem Column                      103.389
  ===> Total Chemistry                     104.023
  => WRF                                   402.149
  ===> Total WRF-GC                        506.172
 max optd  1.9364301E+31
 max taucldi  4.2253276E-07
 max taucldw  6.2105505E-07
 Switching is not necessary as we are already
 in the right domain!
 GIGC_Chunk_Run: Running for in-PET grid #           1
 GIGC_Chunk_Run: Received new grid IM, JM, LM =          15           9
          49
 =================================================
 W R F - G C   T I M E R S
    Domain           1 (Units: s)
 =================================================
  => Coupler Component                       0.667
   -- Physics & Parameterization             0.175
   -- Diagnostics Out                        0.000
  => GEOS-Chem Column                      104.415
  ===> Total Chemistry                     105.082
  => WRF                                   420.431
  ===> Total WRF-GC                        525.513
 max optd  1.9364301E+31
 max taucldi  4.3934884E-07
 max taucldw  6.3609656E-07
 Switching is not necessary as we are already
 in the right domain!
 GIGC_Chunk_Run: Running for in-PET grid #           1
 GIGC_Chunk_Run: Received new grid IM, JM, LM =          15           9
          49
 =================================================
 W R F - G C   T I M E R S
    Domain           1 (Units: s)
 =================================================
  => Coupler Component                       0.704
   -- Physics & Parameterization             0.184
   -- Diagnostics Out                        0.000
  => GEOS-Chem Column                      105.445
  ===> Total Chemistry                     106.149
  => WRF                                   438.820
  ===> Total WRF-GC                        544.969
 max optd  1.9364301E+31
 max taucldi  4.5065400E-07
 max taucldw  6.6552008E-07
 Switching is not necessary as we are already
 in the right domain!
 GIGC_Chunk_Run: Running for in-PET grid #           1
 GIGC_Chunk_Run: Received new grid IM, JM, LM =          15           9
          49
 =================================================
 W R F - G C   T I M E R S
    Domain           1 (Units: s)
 =================================================
  => Coupler Component                       0.739
   -- Physics & Parameterization             0.193
   -- Diagnostics Out                        0.000
  => GEOS-Chem Column                      106.490
  ===> Total Chemistry                     107.228
  => WRF                                   456.934
  ===> Total WRF-GC                        564.162
 max optd  1.9364301E+31
 max taucldi  4.5525073E-07
 max taucldw  6.9751343E-07
 Switching is not necessary as we are already
 in the right domain!
 GIGC_Chunk_Run: Running for in-PET grid #           1
 GIGC_Chunk_Run: Received new grid IM, JM, LM =          15           9
          49
 =================================================
 W R F - G C   T I M E R S
    Domain           1 (Units: s)
 =================================================
  => Coupler Component                       0.775
   -- Physics & Parameterization             0.202
   -- Diagnostics Out                        0.000
  => GEOS-Chem Column                      107.525
  ===> Total Chemistry                     108.301
  => WRF                                   475.133
  ===> Total WRF-GC                        583.434
 max optd  1.9364301E+31
 max taucldi  4.5488710E-07
 max taucldw  7.2530429E-07
 Switching is not necessary as we are already
 in the right domain!
 GIGC_Chunk_Run: Running for in-PET grid #           1
 GIGC_Chunk_Run: Received new grid IM, JM, LM =          15           9
          49
 =================================================
 W R F - G C   T I M E R S
    Domain           1 (Units: s)
 =================================================
  => Coupler Component                       0.810
   -- Physics & Parameterization             0.212
   -- Diagnostics Out                        0.000
  => GEOS-Chem Column                      108.549
  ===> Total Chemistry                     109.359
  => WRF                                   493.444
  ===> Total WRF-GC                        602.803
 max optd  1.9364301E+31
 max taucldi  4.5222401E-07
 max taucldw  7.4437480E-07
 Switching is not necessary as we are already
 in the right domain!
 GIGC_Chunk_Run: Running for in-PET grid #           1
 GIGC_Chunk_Run: Received new grid IM, JM, LM =          15           9
          49
 =================================================
 W R F - G C   T I M E R S
    Domain           1 (Units: s)
 =================================================
  => Coupler Component                       0.845
   -- Physics & Parameterization             0.221
   -- Diagnostics Out                        0.000
  => GEOS-Chem Column                      109.594
  ===> Total Chemistry                     110.439
  => WRF                                   511.647
  ===> Total WRF-GC                        622.086
 HOURLY EMISSIONS UPDATE TIME     7200.0       0.0
mediation_integrate: med_read_wrf_chem_emissions: Read emissions for time 2018-01-01_02:00:00
 max optd  1.9364301E+31
 max taucldi  4.4877399E-07
 max taucldw  7.5635927E-07
 Switching is not necessary as we are already
 in the right domain!
 GIGC_Chunk_Run: Running for in-PET grid #           1
 GIGC_Chunk_Run: Received new grid IM, JM, LM =          15           9
          49
 =================================================
 W R F - G C   T I M E R S
    Domain           1 (Units: s)
 =================================================
  => Coupler Component                       0.879
   -- Physics & Parameterization             0.230
   -- Diagnostics Out                        0.000
  => GEOS-Chem Column                      110.620
  ===> Total Chemistry                     111.499
  => WRF                                   529.879
  ===> Total WRF-GC                        641.378
 max optd  1.9364301E+31
 max taucldi  4.4529858E-07
 max taucldw  7.6283715E-07
 Switching is not necessary as we are already
 in the right domain!
 GIGC_Chunk_Run: Running for in-PET grid #           1
 GIGC_Chunk_Run: Received new grid IM, JM, LM =          15           9
          49
 =================================================
 W R F - G C   T I M E R S
    Domain           1 (Units: s)
 =================================================
  => Coupler Component                       0.916
   -- Physics & Parameterization             0.239
   -- Diagnostics Out                        0.000
  => GEOS-Chem Column                      111.653
  ===> Total Chemistry                     112.569
  => WRF                                   548.125
  ===> Total WRF-GC                        660.694
 max optd  1.9364301E+31
 max taucldi  4.4271533E-07
 max taucldw  7.6678668E-07
 Switching is not necessary as we are already
 in the right domain!
 GIGC_Chunk_Run: Running for in-PET grid #           1
 GIGC_Chunk_Run: Received new grid IM, JM, LM =          15           9
          49
 =================================================
 W R F - G C   T I M E R S
    Domain           1 (Units: s)
 =================================================
  => Coupler Component                       0.950
   -- Physics & Parameterization             0.248
   -- Diagnostics Out                        0.000
  => GEOS-Chem Column                      112.697
  ===> Total Chemistry                     113.647
  => WRF                                   566.271
  ===> Total WRF-GC                        679.917
 max optd  1.9364301E+31
 max taucldi  4.4121120E-07
 max taucldw  7.7784352E-07
 Switching is not necessary as we are already
 in the right domain!
 GIGC_Chunk_Run: Running for in-PET grid #           1
 GIGC_Chunk_Run: Received new grid IM, JM, LM =          15           9
          49
 =================================================
 W R F - G C   T I M E R S
    Domain           1 (Units: s)
 =================================================
  => Coupler Component                       0.988
   -- Physics & Parameterization             0.257
   -- Diagnostics Out                        0.000
  => GEOS-Chem Column                      113.734
  ===> Total Chemistry                     114.722
  => WRF                                   584.388
  ===> Total WRF-GC                        699.110
 max optd  1.9364301E+31
 max taucldi  4.4067156E-07
 max taucldw  7.9839145E-07
 Switching is not necessary as we are already
 in the right domain!
 GIGC_Chunk_Run: Running for in-PET grid #           1
 GIGC_Chunk_Run: Received new grid IM, JM, LM =          15           9
          49
 =================================================
 W R F - G C   T I M E R S
    Domain           1 (Units: s)
 =================================================
  => Coupler Component                       1.021
   -- Physics & Parameterization             0.266
   -- Diagnostics Out                        0.000
  => GEOS-Chem Column                      114.774
  ===> Total Chemistry                     115.796
  => WRF                                   602.547
  ===> Total WRF-GC                        718.342
 max optd  1.9364301E+31
 max taucldi  4.4166958E-07
 max taucldw  8.1690263E-07
 Switching is not necessary as we are already
 in the right domain!
 GIGC_Chunk_Run: Running for in-PET grid #           1
 GIGC_Chunk_Run: Received new grid IM, JM, LM =          15           9
          49
 =================================================
 W R F - G C   T I M E R S
    Domain           1 (Units: s)
 =================================================
  => Coupler Component                       1.058
   -- Physics & Parameterization             0.275
   -- Diagnostics Out                        0.000
  => GEOS-Chem Column                      115.800
  ===> Total Chemistry                     116.858
  => WRF                                   620.707
  ===> Total WRF-GC                        737.565
 max optd  1.9364301E+31
 max taucldi  4.5073355E-07
 max taucldw  8.3338739E-07
 Switching is not necessary as we are already
 in the right domain!
 GIGC_Chunk_Run: Running for in-PET grid #           1
 GIGC_Chunk_Run: Received new grid IM, JM, LM =          15           9
          49
 =================================================
 W R F - G C   T I M E R S
    Domain           1 (Units: s)
 =================================================
  => Coupler Component                       1.096
   -- Physics & Parameterization             0.284
   -- Diagnostics Out                        0.000
  => GEOS-Chem Column                      116.828
  ===> Total Chemistry                     117.924
  => WRF                                   638.884
  ===> Total WRF-GC                        756.808
 max optd  1.9364301E+31
 max taucldi  4.6859518E-07
 max taucldw  8.4634445E-07
 Switching is not necessary as we are already
 in the right domain!
 GIGC_Chunk_Run: Running for in-PET grid #           1
 GIGC_Chunk_Run: Received new grid IM, JM, LM =          15           9
          49
 =================================================
 W R F - G C   T I M E R S
    Domain           1 (Units: s)
 =================================================
  => Coupler Component                       1.130
   -- Physics & Parameterization             0.293
   -- Diagnostics Out                        0.000
  => GEOS-Chem Column                      117.856
  ===> Total Chemistry                     118.986
  => WRF                                   656.993
  ===> Total WRF-GC                        775.980
 max optd  1.9364301E+31
 max taucldi  4.8709364E-07
 max taucldw  8.5401268E-07
 Switching is not necessary as we are already
 in the right domain!
 GIGC_Chunk_Run: Running for in-PET grid #           1
 GIGC_Chunk_Run: Received new grid IM, JM, LM =          15           9
          49
 =================================================
 W R F - G C   T I M E R S
    Domain           1 (Units: s)
 =================================================
  => Coupler Component                       1.165
   -- Physics & Parameterization             0.302
   -- Diagnostics Out                        0.000
  => GEOS-Chem Column                      118.888
  ===> Total Chemistry                     120.053
  => WRF                                   675.115
  ===> Total WRF-GC                        795.168
 max optd  1.9364301E+31
 max taucldi  5.1441083E-07
 max taucldw  8.5919163E-07
 Switching is not necessary as we are already
 in the right domain!
 GIGC_Chunk_Run: Running for in-PET grid #           1
 GIGC_Chunk_Run: Received new grid IM, JM, LM =          15           9
          49
 =================================================
 W R F - G C   T I M E R S
    Domain           1 (Units: s)
 =================================================
  => Coupler Component                       1.199
   -- Physics & Parameterization             0.311
   -- Diagnostics Out                        0.000
  => GEOS-Chem Column                      119.915
  ===> Total Chemistry                     121.114
  => WRF                                   693.298
  ===> Total WRF-GC                        814.411
 max optd  1.9364301E+31
 max taucldi  5.4194135E-07
 max taucldw  8.6475154E-07
 Switching is not necessary as we are already
 in the right domain!
 GIGC_Chunk_Run: Running for in-PET grid #           1
 GIGC_Chunk_Run: Received new grid IM, JM, LM =          15           9
          49
 =================================================
 W R F - G C   T I M E R S
    Domain           1 (Units: s)
 =================================================
  => Coupler Component                       1.231
   -- Physics & Parameterization             0.320
   -- Diagnostics Out                        0.000
  => GEOS-Chem Column                      120.940
  ===> Total Chemistry                     122.171
  => WRF                                   711.386
  ===> Total WRF-GC                        833.557
 max optd  1.9364301E+31
 max taucldi  5.6914962E-07
 max taucldw  8.6758507E-07
 Switching is not necessary as we are already
 in the right domain!
 GIGC_Chunk_Run: Running for in-PET grid #           1
 GIGC_Chunk_Run: Received new grid IM, JM, LM =          15           9
          49
 =================================================
 W R F - G C   T I M E R S
    Domain           1 (Units: s)
 =================================================
  => Coupler Component                       1.267
   -- Physics & Parameterization             0.330
   -- Diagnostics Out                        0.000
  => GEOS-Chem Column                      121.969
  ===> Total Chemistry                     123.236
  => WRF                                   729.495
  ===> Total WRF-GC                        852.731
 HOURLY EMISSIONS UPDATE TIME    10800.0       0.0
mediation_integrate: med_read_wrf_chem_emissions: Read emissions for time 2018-01-01_03:00:00
 max optd  1.9364301E+31
 max taucldi  5.9575387E-07
 max taucldw  8.6928054E-07
 Switching is not necessary as we are already
 in the right domain!
 GIGC_Chunk_Run: Running for in-PET grid #           1
 GIGC_Chunk_Run: Received new grid IM, JM, LM =          15           9
          49
 =================================================
 W R F - G C   T I M E R S
    Domain           1 (Units: s)
 =================================================
  => Coupler Component                       1.303
   -- Physics & Parameterization             0.339
   -- Diagnostics Out                        0.000
  => GEOS-Chem Column                      122.999
  ===> Total Chemistry                     124.302
  => WRF                                   747.654
  ===> Total WRF-GC                        871.956
 max optd  1.9364301E+31
 max taucldi  6.2160660E-07
 max taucldw  8.7036625E-07
 Switching is not necessary as we are already
 in the right domain!
 GIGC_Chunk_Run: Running for in-PET grid #           1
 GIGC_Chunk_Run: Received new grid IM, JM, LM =          15           9
          49
 =================================================
 W R F - G C   T I M E R S
    Domain           1 (Units: s)
 =================================================
  => Coupler Component                       1.341
   -- Physics & Parameterization             0.348
   -- Diagnostics Out                        0.000
  => GEOS-Chem Column                      124.029
  ===> Total Chemistry                     125.370
  => WRF                                   765.770
  ===> Total WRF-GC                        891.140
 max optd  1.9364301E+31
 max taucldi  6.4653153E-07
 max taucldw  8.6754426E-07
 Switching is not necessary as we are already
 in the right domain!
 GIGC_Chunk_Run: Running for in-PET grid #           1
 GIGC_Chunk_Run: Received new grid IM, JM, LM =          15           9
          49
 =================================================
 W R F - G C   T I M E R S
    Domain           1 (Units: s)
 =================================================
  => Coupler Component                       1.379
   -- Physics & Parameterization             0.357
   -- Diagnostics Out                        0.000
  => GEOS-Chem Column                      125.061
  ===> Total Chemistry                     126.440
  => WRF                                   783.898
  ===> Total WRF-GC                        910.337
 max optd  1.9364301E+31
 max taucldi  6.6983114E-07
 max taucldw  8.8023330E-07
 Switching is not necessary as we are already
 in the right domain!
 GIGC_Chunk_Run: Running for in-PET grid #           1
 GIGC_Chunk_Run: Received new grid IM, JM, LM =          15           9
          49
 =================================================
 W R F - G C   T I M E R S
    Domain           1 (Units: s)
 =================================================
  => Coupler Component                       1.412
   -- Physics & Parameterization             0.367
   -- Diagnostics Out                        0.000
  => GEOS-Chem Column                      126.093
  ===> Total Chemistry                     127.505
  => WRF                                   802.014
  ===> Total WRF-GC                        929.519
 max optd  1.9364301E+31
 max taucldi  6.9029210E-07
 max taucldw  8.9477578E-07
 Switching is not necessary as we are already
 in the right domain!
 GIGC_Chunk_Run: Running for in-PET grid #           1
 GIGC_Chunk_Run: Received new grid IM, JM, LM =          15           9
          49
 =================================================
 W R F - G C   T I M E R S
    Domain           1 (Units: s)
 =================================================
  => Coupler Component                       1.449
   -- Physics & Parameterization             0.376
   -- Diagnostics Out                        0.000
  => GEOS-Chem Column                      127.128
  ===> Total Chemistry                     128.577
  => WRF                                   820.104
  ===> Total WRF-GC                        948.681
 max optd  1.9364301E+31
 max taucldi  7.0640124E-07
 max taucldw  9.0840621E-07
 Switching is not necessary as we are already
 in the right domain!
 GIGC_Chunk_Run: Running for in-PET grid #           1
 GIGC_Chunk_Run: Received new grid IM, JM, LM =          15           9
          49
 =================================================
 W R F - G C   T I M E R S
    Domain           1 (Units: s)
 =================================================
  => Coupler Component                       1.486
   -- Physics & Parameterization             0.385
   -- Diagnostics Out                        0.000
  => GEOS-Chem Column                      128.158
  ===> Total Chemistry                     129.644
  => WRF                                   838.472
  ===> Total WRF-GC                        968.117
 max optd  1.9364301E+31
 max taucldi  7.1800349E-07
 max taucldw  9.2109292E-07
 Switching is not necessary as we are already
 in the right domain!
 GIGC_Chunk_Run: Running for in-PET grid #           1
 GIGC_Chunk_Run: Received new grid IM, JM, LM =          15           9
          49
 =================================================
 W R F - G C   T I M E R S
    Domain           1 (Units: s)
 =================================================
  => Coupler Component                       1.521
   -- Physics & Parameterization             0.394
   -- Diagnostics Out                        0.000
  => GEOS-Chem Column                      129.189
  ===> Total Chemistry                     130.710
  => WRF                                   856.670
  ===> Total WRF-GC                        987.380
 max optd  1.9364301E+31
 max taucldi  7.2666768E-07
 max taucldw  9.3271592E-07
 Switching is not necessary as we are already
 in the right domain!
 GIGC_Chunk_Run: Running for in-PET grid #           1
 GIGC_Chunk_Run: Received new grid IM, JM, LM =          15           9
          49
 =================================================
 W R F - G C   T I M E R S
    Domain           1 (Units: s)
 =================================================
  => Coupler Component                       1.559
   -- Physics & Parameterization             0.403
   -- Diagnostics Out                        0.000
  => GEOS-Chem Column                      130.242
  ===> Total Chemistry                     131.801
  => WRF                                   874.697
  ===> Total WRF-GC                       1006.498
 max optd  1.9364301E+31
 max taucldi  7.3523358E-07
 max taucldw  9.4446938E-07
 Switching is not necessary as we are already
 in the right domain!
 GIGC_Chunk_Run: Running for in-PET grid #           1
 GIGC_Chunk_Run: Received new grid IM, JM, LM =          15           9
          49
 =================================================
 W R F - G C   T I M E R S
    Domain           1 (Units: s)
 =================================================
  => Coupler Component                       1.593
   -- Physics & Parameterization             0.412
   -- Diagnostics Out                        0.000
  => GEOS-Chem Column                      131.274
  ===> Total Chemistry                     132.867
  => WRF                                   892.950
  ===> Total WRF-GC                       1025.817
 max optd  1.9364301E+31
 max taucldi  7.4514213E-07
 max taucldw  9.5456812E-07
 Switching is not necessary as we are already
 in the right domain!
 GIGC_Chunk_Run: Running for in-PET grid #           1
 GIGC_Chunk_Run: Received new grid IM, JM, LM =          15           9
          49
 =================================================
 W R F - G C   T I M E R S
    Domain           1 (Units: s)
 =================================================
  => Coupler Component                       1.630
   -- Physics & Parameterization             0.421
   -- Diagnostics Out                        0.000
  => GEOS-Chem Column                      132.287
  ===> Total Chemistry                     133.918
  => WRF                                   911.118
  ===> Total WRF-GC                       1045.035
 max optd  1.9364301E+31
 max taucldi  7.5594801E-07
 max taucldw  9.6380870E-07
 Switching is not necessary as we are already
 in the right domain!
 GIGC_Chunk_Run: Running for in-PET grid #           1
 GIGC_Chunk_Run: Received new grid IM, JM, LM =          15           9
          49
 =================================================
 W R F - G C   T I M E R S
    Domain           1 (Units: s)
 =================================================
  => Coupler Component                       1.665
   -- Physics & Parameterization             0.430
   -- Diagnostics Out                        0.000
  => GEOS-Chem Column                      133.317
  ===> Total Chemistry                     134.982
  => WRF                                   929.253
  ===> Total WRF-GC                       1064.234
 max optd  1.9364301E+31
 max taucldi  7.6727633E-07
 max taucldw  9.7250415E-07
 Switching is not necessary as we are already
 in the right domain!
 GIGC_Chunk_Run: Running for in-PET grid #           1
 GIGC_Chunk_Run: Received new grid IM, JM, LM =          15           9
          49
 =================================================
 W R F - G C   T I M E R S
    Domain           1 (Units: s)
 =================================================
  => Coupler Component                       1.700
   -- Physics & Parameterization             0.439
   -- Diagnostics Out                        0.000
  => GEOS-Chem Column                      134.352
  ===> Total Chemistry                     136.051
  => WRF                                   947.424
  ===> Total WRF-GC                       1083.476
 HOURLY EMISSIONS UPDATE TIME    14400.0       0.0
mediation_integrate: med_read_wrf_chem_emissions: Read emissions for time 2018-01-01_04:00:00
 max optd  1.9364301E+31
 max taucldi  7.7731073E-07
 max taucldw  9.8054113E-07
 Switching is not necessary as we are already
 in the right domain!
 GIGC_Chunk_Run: Running for in-PET grid #           1
 GIGC_Chunk_Run: Received new grid IM, JM, LM =          15           9
          49
 =================================================
 W R F - G C   T I M E R S
    Domain           1 (Units: s)
 =================================================
  => Coupler Component                       1.737
   -- Physics & Parameterization             0.448
   -- Diagnostics Out                        0.000
  => GEOS-Chem Column                      135.381
  ===> Total Chemistry                     137.118
  => WRF                                   965.584
  ===> Total WRF-GC                       1102.702
 max optd  1.9364301E+31
 max taucldi  7.8431492E-07
 max taucldw  9.8956343E-07
 Switching is not necessary as we are already
 in the right domain!
 GIGC_Chunk_Run: Running for in-PET grid #           1
 GIGC_Chunk_Run: Received new grid IM, JM, LM =          15           9
          49
 =================================================
 W R F - G C   T I M E R S
    Domain           1 (Units: s)
 =================================================
  => Coupler Component                       1.772
   -- Physics & Parameterization             0.457
   -- Diagnostics Out                        0.000
  => GEOS-Chem Column                      136.408
  ===> Total Chemistry                     138.181
  => WRF                                   983.753
  ===> Total WRF-GC                       1121.933
 max optd  1.9364301E+31
 max taucldi  7.8893873E-07
 max taucldw  9.9956731E-07
 Switching is not necessary as we are already
 in the right domain!
 GIGC_Chunk_Run: Running for in-PET grid #           1
 GIGC_Chunk_Run: Received new grid IM, JM, LM =          15           9
          49
 =================================================
 W R F - G C   T I M E R S
    Domain           1 (Units: s)
 =================================================
  => Coupler Component                       1.809
   -- Physics & Parameterization             0.467
   -- Diagnostics Out                        0.000
  => GEOS-Chem Column                      137.439
  ===> Total Chemistry                     139.247
  => WRF                                  1002.002
  ===> Total WRF-GC                       1141.250
 max optd  1.9364301E+31
 max taucldi  7.9160299E-07
 max taucldw  1.0105538E-06
 Switching is not necessary as we are already
 in the right domain!
 GIGC_Chunk_Run: Running for in-PET grid #           1
 GIGC_Chunk_Run: Received new grid IM, JM, LM =          15           9
          49
 =================================================
 W R F - G C   T I M E R S
    Domain           1 (Units: s)
 =================================================
  => Coupler Component                       1.846
   -- Physics & Parameterization             0.476
   -- Diagnostics Out                        0.000
  => GEOS-Chem Column                      138.475
  ===> Total Chemistry                     140.321
  => WRF                                  1020.139
  ===> Total WRF-GC                       1160.460
 max optd  1.9364301E+31
 max taucldi  7.9198526E-07
 max taucldw  1.0207262E-06
 Switching is not necessary as we are already
 in the right domain!
 GIGC_Chunk_Run: Running for in-PET grid #           1
 GIGC_Chunk_Run: Received new grid IM, JM, LM =          15           9
          49
 =================================================
 W R F - G C   T I M E R S
    Domain           1 (Units: s)
 =================================================
  => Coupler Component                       1.881
   -- Physics & Parameterization             0.485
   -- Diagnostics Out                        0.000
  => GEOS-Chem Column                      139.516
  ===> Total Chemistry                     141.398
  => WRF                                  1038.307
  ===> Total WRF-GC                       1179.705
 max optd  1.9364301E+31
 max taucldi  7.9003479E-07
 max taucldw  1.0306807E-06
 Switching is not necessary as we are already
 in the right domain!
 GIGC_Chunk_Run: Running for in-PET grid #           1
 GIGC_Chunk_Run: Received new grid IM, JM, LM =          15           9
          49
 =================================================
 W R F - G C   T I M E R S
    Domain           1 (Units: s)
 =================================================
  => Coupler Component                       1.916
   -- Physics & Parameterization             0.494
   -- Diagnostics Out                        0.000
  => GEOS-Chem Column                      140.543
  ===> Total Chemistry                     142.459
  => WRF                                  1056.477
  ===> Total WRF-GC                       1198.936
 max optd  1.9364301E+31
 max taucldi  7.8585612E-07
 max taucldw  1.0405362E-06
 Switching is not necessary as we are already
 in the right domain!
 GIGC_Chunk_Run: Running for in-PET grid #           1
 GIGC_Chunk_Run: Received new grid IM, JM, LM =          15           9
          49
 =================================================
 W R F - G C   T I M E R S
    Domain           1 (Units: s)
 =================================================
  => Coupler Component                       1.952
   -- Physics & Parameterization             0.503
   -- Diagnostics Out                        0.000
  => GEOS-Chem Column                      141.584
  ===> Total Chemistry                     143.536
  => WRF                                  1074.694
  ===> Total WRF-GC                       1218.231
 max optd  1.9364301E+31
 max taucldi  7.7916053E-07
 max taucldw  1.0511200E-06
 Switching is not necessary as we are already
 in the right domain!
 GIGC_Chunk_Run: Running for in-PET grid #           1
 GIGC_Chunk_Run: Received new grid IM, JM, LM =          15           9
          49
 =================================================
 W R F - G C   T I M E R S
    Domain           1 (Units: s)
 =================================================
  => Coupler Component                       1.987
   -- Physics & Parameterization             0.512
   -- Diagnostics Out                        0.000
  => GEOS-Chem Column                      142.619
  ===> Total Chemistry                     144.606
  => WRF                                  1092.820
  ===> Total WRF-GC                       1237.425
 max optd  1.9364301E+31
 max taucldi  7.6973430E-07
 max taucldw  1.0609544E-06
 Switching is not necessary as we are already
 in the right domain!
 GIGC_Chunk_Run: Running for in-PET grid #           1
 GIGC_Chunk_Run: Received new grid IM, JM, LM =          15           9
          49
 =================================================
 W R F - G C   T I M E R S
    Domain           1 (Units: s)
 =================================================
  => Coupler Component                       2.023
   -- Physics & Parameterization             0.522
   -- Diagnostics Out                        0.000
  => GEOS-Chem Column                      143.659
  ===> Total Chemistry                     145.682
  => WRF                                  1110.983
  ===> Total WRF-GC                       1256.665
 max optd  1.9364301E+31
 max taucldi  7.5765763E-07
 max taucldw  1.0694660E-06
 Switching is not necessary as we are already
 in the right domain!
 GIGC_Chunk_Run: Running for in-PET grid #           1
 GIGC_Chunk_Run: Received new grid IM, JM, LM =          15           9
          49
 =================================================
 W R F - G C   T I M E R S
    Domain           1 (Units: s)
 =================================================
  => Coupler Component                       2.060
   -- Physics & Parameterization             0.531
   -- Diagnostics Out                        0.000
  => GEOS-Chem Column                      144.682
  ===> Total Chemistry                     146.741
  => WRF                                  1129.129
  ===> Total WRF-GC                       1275.870
 max optd  1.9364301E+31
 max taucldi  7.4352488E-07
 max taucldw  1.0774920E-06
 Switching is not necessary as we are already
 in the right domain!
 GIGC_Chunk_Run: Running for in-PET grid #           1
 GIGC_Chunk_Run: Received new grid IM, JM, LM =          15           9
          49
 =================================================
 W R F - G C   T I M E R S
    Domain           1 (Units: s)
 =================================================
  => Coupler Component                       2.095
   -- Physics & Parameterization             0.540
   -- Diagnostics Out                        0.000
  => GEOS-Chem Column                      145.707
  ===> Total Chemistry                     147.802
  => WRF                                  1147.246
  ===> Total WRF-GC                       1295.048
 max optd  1.9364301E+31
 max taucldi  7.2853629E-07
 max taucldw  1.0846197E-06
 Switching is not necessary as we are already
 in the right domain!
 GIGC_Chunk_Run: Running for in-PET grid #           1
 GIGC_Chunk_Run: Received new grid IM, JM, LM =          15           9
          49
 =================================================
 W R F - G C   T I M E R S
    Domain           1 (Units: s)
 =================================================
  => Coupler Component                       2.128
   -- Physics & Parameterization             0.549
   -- Diagnostics Out                        0.000
  => GEOS-Chem Column                      146.747
  ===> Total Chemistry                     148.875
  => WRF                                  1165.344
  ===> Total WRF-GC                       1314.218
 HOURLY EMISSIONS UPDATE TIME    18000.0       0.0
mediation_integrate: med_read_wrf_chem_emissions: Read emissions for time 2018-01-01_05:00:00
 max optd  1.9364301E+31
 max taucldi  7.1336592E-07
 max taucldw  1.0897820E-06
 Switching is not necessary as we are already
 in the right domain!
 GIGC_Chunk_Run: Running for in-PET grid #           1
 GIGC_Chunk_Run: Received new grid IM, JM, LM =          15           9
          49
 =================================================
 W R F - G C   T I M E R S
    Domain           1 (Units: s)
 =================================================
  => Coupler Component                       2.166
   -- Physics & Parameterization             0.558
   -- Diagnostics Out                        0.000
  => GEOS-Chem Column                      147.789
  ===> Total Chemistry                     149.956
  => WRF                                  1183.534
  ===> Total WRF-GC                       1333.490
 max optd  1.9364301E+31
 max taucldi  6.9844924E-07
 max taucldw  1.0912867E-06
 Switching is not necessary as we are already
 in the right domain!
 GIGC_Chunk_Run: Running for in-PET grid #           1
 GIGC_Chunk_Run: Received new grid IM, JM, LM =          15           9
          49
 =================================================
 W R F - G C   T I M E R S
    Domain           1 (Units: s)
 =================================================
  => Coupler Component                       2.201
   -- Physics & Parameterization             0.567
   -- Diagnostics Out                        0.000
  => GEOS-Chem Column                      148.833
  ===> Total Chemistry                     151.033
  => WRF                                  1201.640
  ===> Total WRF-GC                       1352.673
 max optd  1.9364301E+31
 max taucldi  6.8434417E-07
 max taucldw  1.0896324E-06
 Switching is not necessary as we are already
 in the right domain!
 GIGC_Chunk_Run: Running for in-PET grid #           1
 GIGC_Chunk_Run: Received new grid IM, JM, LM =          15           9
          49
 =================================================
 W R F - G C   T I M E R S
    Domain           1 (Units: s)
 =================================================
  => Coupler Component                       2.239
   -- Physics & Parameterization             0.576
   -- Diagnostics Out                        0.000
  => GEOS-Chem Column                      149.863
  ===> Total Chemistry                     152.101
  => WRF                                  1219.767
  ===> Total WRF-GC                       1371.868
 max optd  1.9364301E+31
 max taucldi  6.7105367E-07
 max taucldw  1.0852082E-06
 Switching is not necessary as we are already
 in the right domain!
 GIGC_Chunk_Run: Running for in-PET grid #           1
 GIGC_Chunk_Run: Received new grid IM, JM, LM =          15           9
          49
 =================================================
 W R F - G C   T I M E R S
    Domain           1 (Units: s)
 =================================================
  => Coupler Component                       2.277
   -- Physics & Parameterization             0.586
   -- Diagnostics Out                        0.000
  => GEOS-Chem Column                      150.896
  ===> Total Chemistry                     153.173
  => WRF                                  1237.925
  ===> Total WRF-GC                       1391.097
 max optd  1.9364301E+31
 max taucldi  6.5915958E-07
 max taucldw  1.0800674E-06
 Switching is not necessary as we are already
 in the right domain!
 GIGC_Chunk_Run: Running for in-PET grid #           1
 GIGC_Chunk_Run: Received new grid IM, JM, LM =          15           9
          49
 =================================================
 W R F - G C   T I M E R S
    Domain           1 (Units: s)
 =================================================
  => Coupler Component                       2.314
   -- Physics & Parameterization             0.595
   -- Diagnostics Out                        0.000
  => GEOS-Chem Column                      151.928
  ===> Total Chemistry                     154.242
  => WRF                                  1256.124
  ===> Total WRF-GC                       1410.366
 max optd  1.9364301E+31
 max taucldi  6.4856101E-07
 max taucldw  1.0762064E-06
 Switching is not necessary as we are already
 in the right domain!
 GIGC_Chunk_Run: Running for in-PET grid #           1
 GIGC_Chunk_Run: Received new grid IM, JM, LM =          15           9
          49
 =================================================
 W R F - G C   T I M E R S
    Domain           1 (Units: s)
 =================================================
  => Coupler Component                       2.347
   -- Physics & Parameterization             0.604
   -- Diagnostics Out                        0.000
  => GEOS-Chem Column                      152.980
  ===> Total Chemistry                     155.326
  => WRF                                  1274.227
  ===> Total WRF-GC                       1429.553
 max optd  1.9364301E+31
 max taucldi  6.3934078E-07
 max taucldw  1.0747848E-06
 Switching is not necessary as we are already
 in the right domain!
 GIGC_Chunk_Run: Running for in-PET grid #           1
 GIGC_Chunk_Run: Received new grid IM, JM, LM =          15           9
          49
 =================================================
 W R F - G C   T I M E R S
    Domain           1 (Units: s)
 =================================================
  => Coupler Component                       2.386
   -- Physics & Parameterization             0.613
   -- Diagnostics Out                        0.000
  => GEOS-Chem Column                      154.012
  ===> Total Chemistry                     156.397
  => WRF                                  1292.435
  ===> Total WRF-GC                       1448.832
 max optd  1.9364301E+31
 max taucldi  6.3112037E-07
 max taucldw  1.0767639E-06
 Switching is not necessary as we are already
 in the right domain!
 GIGC_Chunk_Run: Running for in-PET grid #           1
 GIGC_Chunk_Run: Received new grid IM, JM, LM =          15           9
          49
 =================================================
 W R F - G C   T I M E R S
    Domain           1 (Units: s)
 =================================================
  => Coupler Component                       2.420
   -- Physics & Parameterization             0.622
   -- Diagnostics Out                        0.000
  => GEOS-Chem Column                      155.047
  ===> Total Chemistry                     157.467
  => WRF                                  1310.561
  ===> Total WRF-GC                       1468.028
 max optd  1.9364301E+31
 max taucldi  6.2305378E-07
 max taucldw  1.0809862E-06
 Switching is not necessary as we are already
 in the right domain!
 GIGC_Chunk_Run: Running for in-PET grid #           1
 GIGC_Chunk_Run: Received new grid IM, JM, LM =          15           9
          49
 =================================================
 W R F - G C   T I M E R S
    Domain           1 (Units: s)
 =================================================
  => Coupler Component                       2.454
   -- Physics & Parameterization             0.631
   -- Diagnostics Out                        0.000
  => GEOS-Chem Column                      156.093
  ===> Total Chemistry                     158.547
  => WRF                                  1328.755
  ===> Total WRF-GC                       1487.302
 max optd  1.9364301E+31
 max taucldi  6.1462191E-07
 max taucldw  1.0869885E-06
 Switching is not necessary as we are already
 in the right domain!
 GIGC_Chunk_Run: Running for in-PET grid #           1
 GIGC_Chunk_Run: Received new grid IM, JM, LM =          15           9
          49
 =================================================
 W R F - G C   T I M E R S
    Domain           1 (Units: s)
 =================================================
  => Coupler Component                       2.488
   -- Physics & Parameterization             0.640
   -- Diagnostics Out                        0.000
  => GEOS-Chem Column                      157.140
  ===> Total Chemistry                     159.628
  => WRF                                  1347.173
  ===> Total WRF-GC                       1506.801
 max optd  1.9364301E+31
 max taucldi  6.0546967E-07
 max taucldw  1.0947750E-06
 Switching is not necessary as we are already
 in the right domain!
 GIGC_Chunk_Run: Running for in-PET grid #           1
 GIGC_Chunk_Run: Received new grid IM, JM, LM =          15           9
          49
 =================================================
 W R F - G C   T I M E R S
    Domain           1 (Units: s)
 =================================================
  => Coupler Component                       2.526
   -- Physics & Parameterization             0.649
   -- Diagnostics Out                        0.000
  => GEOS-Chem Column                      158.173
  ===> Total Chemistry                     160.699
  => WRF                                  1365.305
  ===> Total WRF-GC                       1526.004
 max optd  1.9364301E+31
 max taucldi  5.9601854E-07
 max taucldw  1.1032196E-06
 Switching is not necessary as we are already
 in the right domain!
 GIGC_Chunk_Run: Running for in-PET grid #           1
 GIGC_Chunk_Run: Received new grid IM, JM, LM =          15           9
          49
 =================================================
 W R F - G C   T I M E R S
    Domain           1 (Units: s)
 =================================================
  => Coupler Component                       2.559
   -- Physics & Parameterization             0.659
   -- Diagnostics Out                        0.000
  => GEOS-Chem Column                      159.216
  ===> Total Chemistry                     161.775
  => WRF                                  1383.462
  ===> Total WRF-GC                       1545.237
 HOURLY EMISSIONS UPDATE TIME    21600.0       0.0
mediation_integrate: med_read_wrf_chem_emissions: Read emissions for time 2018-01-01_06:00:00
 max optd  1.9364301E+31
 max taucldi  5.8662931E-07
 max taucldw  1.1123265E-06
 Switching is not necessary as we are already
 in the right domain!
 GIGC_Chunk_Run: Running for in-PET grid #           1
 GIGC_Chunk_Run: Received new grid IM, JM, LM =          15           9
          49
 =================================================
 W R F - G C   T I M E R S
    Domain           1 (Units: s)
 =================================================
  => Coupler Component                       2.597
   -- Physics & Parameterization             0.668
   -- Diagnostics Out                        0.000
  => GEOS-Chem Column                      160.256
  ===> Total Chemistry                     162.853
  => WRF                                  1842.149
  ===> Total WRF-GC                       2005.002
 max optd  1.9364301E+31
 max taucldi  5.7793096E-07
 max taucldw  1.1223464E-06
 Switching is not necessary as we are already
 in the right domain!
 GIGC_Chunk_Run: Running for in-PET grid #           1
 GIGC_Chunk_Run: Received new grid IM, JM, LM =          15           9
          49
 =================================================
 W R F - G C   T I M E R S
    Domain           1 (Units: s)
 =================================================
  => Coupler Component                       2.631
   -- Physics & Parameterization             0.677
   -- Diagnostics Out                        0.000
  => GEOS-Chem Column                      161.307
  ===> Total Chemistry                     163.938
  => WRF                                  1860.295
  ===> Total WRF-GC                       2024.232
 max optd  1.9364301E+31
 max taucldi  5.7036027E-07
 max taucldw  1.1332415E-06
 Switching is not necessary as we are already
 in the right domain!
 GIGC_Chunk_Run: Running for in-PET grid #           1
 GIGC_Chunk_Run: Received new grid IM, JM, LM =          15           9
          49
 =================================================
 W R F - G C   T I M E R S
    Domain           1 (Units: s)
 =================================================
  => Coupler Component                       2.667
   -- Physics & Parameterization             0.686
   -- Diagnostics Out                        0.000
  => GEOS-Chem Column                      162.331
  ===> Total Chemistry                     164.998
  => WRF                                  1878.593
  ===> Total WRF-GC                       2043.592
 max optd  1.9364301E+31
 max taucldi  5.6741283E-07
 max taucldw  1.1446741E-06
 Switching is not necessary as we are already
 in the right domain!
 GIGC_Chunk_Run: Running for in-PET grid #           1
 GIGC_Chunk_Run: Received new grid IM, JM, LM =          15           9
          49
 =================================================
 W R F - G C   T I M E R S
    Domain           1 (Units: s)
 =================================================
  => Coupler Component                       2.702
[...]
  => GEOS-Chem Column                      208.857
  ===> Total Chemistry                     213.095
  => WRF                                  2697.773
  ===> Total WRF-GC                       2910.868
 HOURLY EMISSIONS UPDATE TIME    36000.0       0.0
mediation_integrate: med_read_wrf_chem_emissions: Read emissions for time 2018-01-01_10:00:00
 max optd  1.9364301E+31
 max taucldi  6.2136854E-07
 max taucldw  1.0021657E-06
 Switching is not necessary as we are already
 in the right domain!
 GIGC_Chunk_Run: Running for in-PET grid #           1
 GIGC_Chunk_Run: Received new grid IM, JM, LM =          15           9
          49
 =================================================
 W R F - G C   T I M E R S
    Domain           1 (Units: s)
 =================================================
  => Coupler Component                       4.273
   -- Physics & Parameterization             1.107
   -- Diagnostics Out                        0.000
  => GEOS-Chem Column                      209.880
  ===> Total Chemistry                     214.154
  => WRF                                  2716.037
  ===> Total WRF-GC                       2930.190
 max optd  1.9364301E+31
 max taucldi  6.2282152E-07
 max taucldw  1.0064811E-06
 Switching is not necessary as we are already
 in the right domain!
 GIGC_Chunk_Run: Running for in-PET grid #           1
 GIGC_Chunk_Run: Received new grid IM, JM, LM =          15           9
          49
 =================================================
 W R F - G C   T I M E R S
    Domain           1 (Units: s)
 =================================================
  => Coupler Component                       4.309
   -- Physics & Parameterization             1.116
   -- Diagnostics Out                        0.000
  => GEOS-Chem Column                      210.909
  ===> Total Chemistry                     215.218
  => WRF                                  2734.221
  ===> Total WRF-GC                       2949.439
 max optd  1.9364301E+31
 max taucldi  6.2436470E-07
 max taucldw  1.0084815E-06
 Switching is not necessary as we are already
 in the right domain!
 GIGC_Chunk_Run: Running for in-PET grid #           1
 GIGC_Chunk_Run: Received new grid IM, JM, LM =          15           9
          49
 =================================================
 W R F - G C   T I M E R S
    Domain           1 (Units: s)
 =================================================
  => Coupler Component                       4.345
   -- Physics & Parameterization             1.125
   -- Diagnostics Out                        0.000
  => GEOS-Chem Column                      211.932
  ===> Total Chemistry                     216.278
  => WRF                                  2752.393
  ===> Total WRF-GC                       2968.670
 max optd  1.9364301E+31
 max taucldi  6.2599156E-07
 max taucldw  1.0080743E-06
 Switching is not necessary as we are already
 in the right domain!
 GIGC_Chunk_Run: Running for in-PET grid #           1
 GIGC_Chunk_Run: Received new grid IM, JM, LM =          15           9
          49
 =================================================
 W R F - G C   T I M E R S
    Domain           1 (Units: s)
 =================================================
  => Coupler Component                       4.379
   -- Physics & Parameterization             1.134
   -- Diagnostics Out                        0.000
  => GEOS-Chem Column                      212.956
  ===> Total Chemistry                     217.336
  => WRF                                  2770.664
  ===> Total WRF-GC                       2988.000
 max optd  1.9364301E+31
 max taucldi  6.2745966E-07
 max taucldw  1.0058830E-06
 Switching is not necessary as we are already
 in the right domain!
 GIGC_Chunk_Run: Running for in-PET grid #           1
 GIGC_Chunk_Run: Received new grid IM, JM, LM =          15           9
          49
 =================================================
 W R F - G C   T I M E R S
    Domain           1 (Units: s)
 =================================================
  => Coupler Component                       4.412
   -- Physics & Parameterization             1.144
   -- Diagnostics Out                        0.000
  => GEOS-Chem Column                      213.993
  ===> Total Chemistry                     218.405
  => WRF                                  2788.882
  ===> Total WRF-GC                       3007.287
 max optd  1.9364301E+31
 max taucldi  6.2866530E-07
 max taucldw  1.0056605E-06
 Switching is not necessary as we are already
 in the right domain!
 GIGC_Chunk_Run: Running for in-PET grid #           1
 GIGC_Chunk_Run: Received new grid IM, JM, LM =          15           9
          49
 =================================================
 W R F - G C   T I M E R S
    Domain           1 (Units: s)
 =================================================
  => Coupler Component                       4.447
   -- Physics & Parameterization             1.153
   -- Diagnostics Out                        0.000
  => GEOS-Chem Column                      215.022
  ===> Total Chemistry                     219.469
  => WRF                                  2807.005
  ===> Total WRF-GC                       3026.474
 max optd  1.9364301E+31
 max taucldi  6.2944997E-07
 max taucldw  1.0140179E-06
 Switching is not necessary as we are already
 in the right domain!
 GIGC_Chunk_Run: Running for in-PET grid #           1
 GIGC_Chunk_Run: Received new grid IM, JM, LM =          15           9
          49
 =================================================
 W R F - G C   T I M E R S
    Domain           1 (Units: s)
 =================================================
  => Coupler Component                       4.484
   -- Physics & Parameterization             1.162
   -- Diagnostics Out                        0.000
  => GEOS-Chem Column                      216.051
  ===> Total Chemistry                     220.534
  => WRF                                  2825.222
  ===> Total WRF-GC                       3045.756
 max optd  1.9364301E+31
 max taucldi  6.2868008E-07
 max taucldw  1.0200205E-06
 Switching is not necessary as we are already
 in the right domain!
 GIGC_Chunk_Run: Running for in-PET grid #           1
 GIGC_Chunk_Run: Received new grid IM, JM, LM =          15           9
          49
 =================================================
 W R F - G C   T I M E R S
    Domain           1 (Units: s)
 =================================================
  => Coupler Component                       4.518
   -- Physics & Parameterization             1.171
   -- Diagnostics Out                        0.000
  => GEOS-Chem Column                      217.093
  ===> Total Chemistry                     221.611
  => WRF                                  2843.412
  ===> Total WRF-GC                       3065.023
 max optd  1.9364301E+31
 max taucldi  6.2606415E-07
 max taucldw  1.0230702E-06
 Switching is not necessary as we are already
 in the right domain!
 GIGC_Chunk_Run: Running for in-PET grid #           1
 GIGC_Chunk_Run: Received new grid IM, JM, LM =          15           9
          49
 =================================================
 W R F - G C   T I M E R S
    Domain           1 (Units: s)
 =================================================
  => Coupler Component                       4.553
   -- Physics & Parameterization             1.180
   -- Diagnostics Out                        0.000
  => GEOS-Chem Column                      218.138
  ===> Total Chemistry                     222.691
  => WRF                                  2861.548
  ===> Total WRF-GC                       3084.239
 max optd  1.9364301E+31
 max taucldi  6.2196318E-07
 max taucldw  1.0236174E-06
 Switching is not necessary as we are already
 in the right domain!
 GIGC_Chunk_Run: Running for in-PET grid #           1
 GIGC_Chunk_Run: Received new grid IM, JM, LM =          15           9
          49
 =================================================
 W R F - G C   T I M E R S
    Domain           1 (Units: s)
 =================================================
  => Coupler Component                       4.587
   -- Physics & Parameterization             1.189
   -- Diagnostics Out                        0.000
  => GEOS-Chem Column                      219.163
  ===> Total Chemistry                     223.750
  => WRF                                  2879.793
  ===> Total WRF-GC                       3103.543
 max optd  1.9364301E+31
 max taucldi  6.1727286E-07
 max taucldw  1.0216489E-06
 Switching is not necessary as we are already
 in the right domain!
 GIGC_Chunk_Run: Running for in-PET grid #           1
 GIGC_Chunk_Run: Received new grid IM, JM, LM =          15           9
          49
 =================================================
 W R F - G C   T I M E R S
    Domain           1 (Units: s)
 =================================================
  => Coupler Component                       4.622
   -- Physics & Parameterization             1.199
   -- Diagnostics Out                        0.000
  => GEOS-Chem Column                      220.194
  ===> Total Chemistry                     224.816
  => WRF                                  2897.977
  ===> Total WRF-GC                       3122.793
 max optd  1.9364301E+31
 max taucldi  6.1280195E-07
 max taucldw  1.0169105E-06
 Switching is not necessary as we are already
 in the right domain!
 GIGC_Chunk_Run: Running for in-PET grid #           1
 GIGC_Chunk_Run: Received new grid IM, JM, LM =          15           9
          49
 =================================================
 W R F - G C   T I M E R S
    Domain           1 (Units: s)
 =================================================
  => Coupler Component                       4.654
   -- Physics & Parameterization             1.208
   -- Diagnostics Out                        0.000
  => GEOS-Chem Column                      221.252
  ===> Total Chemistry                     225.907
  => WRF                                  2916.205
  ===> Total WRF-GC                       3142.112
 HOURLY EMISSIONS UPDATE TIME    39600.0       0.0
mediation_integrate: med_read_wrf_chem_emissions: Read emissions for time 2018-01-01_11:00:00
 max optd  1.9364301E+31
 max taucldi  6.0897264E-07
 max taucldw  1.0089419E-06
 Switching is not necessary as we are already
 in the right domain!
 GIGC_Chunk_Run: Running for in-PET grid #           1
 GIGC_Chunk_Run: Received new grid IM, JM, LM =          15           9
          49
 =================================================
 W R F - G C   T I M E R S
    Domain           1 (Units: s)
 =================================================
  => Coupler Component                       4.690
   -- Physics & Parameterization             1.217
   -- Diagnostics Out                        0.000
  => GEOS-Chem Column                      222.300
  ===> Total Chemistry                     226.990
  => WRF                                  2934.395
  ===> Total WRF-GC                       3161.385
 max optd  1.9364301E+31
 max taucldi  6.0568192E-07
 max taucldw  9.9803935E-07
 Switching is not necessary as we are already
 in the right domain!
 GIGC_Chunk_Run: Running for in-PET grid #           1
 GIGC_Chunk_Run: Received new grid IM, JM, LM =          15           9
          49
 =================================================
 W R F - G C   T I M E R S
    Domain           1 (Units: s)
 =================================================
  => Coupler Component                       4.725
   -- Physics & Parameterization             1.226
   -- Diagnostics Out                        0.000
  => GEOS-Chem Column                      223.334
  ===> Total Chemistry                     228.058
  => WRF                                  2952.535
  ===> Total WRF-GC                       3180.593
 max optd  1.9364301E+31
 max taucldi  6.0261476E-07
 max taucldw  9.8521070E-07
 Switching is not necessary as we are already
 in the right domain!
 GIGC_Chunk_Run: Running for in-PET grid #           1
 GIGC_Chunk_Run: Received new grid IM, JM, LM =          15           9
          49
 =================================================
 W R F - G C   T I M E R S
    Domain           1 (Units: s)
 =================================================
  => Coupler Component                       4.759
   -- Physics & Parameterization             1.236
   -- Diagnostics Out                        0.000
  => GEOS-Chem Column                      224.369
  ===> Total Chemistry                     229.129
  => WRF                                  2970.790
  ===> Total WRF-GC                       3199.919
 max optd  1.9364301E+31
 max taucldi  5.9936735E-07
 max taucldw  9.7141594E-07
 Switching is not necessary as we are already
 in the right domain!
 GIGC_Chunk_Run: Running for in-PET grid #           1
 GIGC_Chunk_Run: Received new grid IM, JM, LM =          15           9
          49
 =================================================
 W R F - G C   T I M E R S
    Domain           1 (Units: s)
 =================================================
  => Coupler Component                       4.799
   -- Physics & Parameterization             1.245
   -- Diagnostics Out                        0.000
  => GEOS-Chem Column                      225.399
  ===> Total Chemistry                     230.199
  => WRF                                  2989.092
  ===> Total WRF-GC                       3219.291
 max optd  1.9364301E+31
 max taucldi  5.9558380E-07
 max taucldw  9.6611382E-07
 Switching is not necessary as we are already
 in the right domain!
 GIGC_Chunk_Run: Running for in-PET grid #           1
 GIGC_Chunk_Run: Received new grid IM, JM, LM =          15           9
          49
 =================================================
 W R F - G C   T I M E R S
    Domain           1 (Units: s)
 =================================================
  => Coupler Component                       4.834
   -- Physics & Parameterization             1.254
   -- Diagnostics Out                        0.000
  => GEOS-Chem Column                      226.440
  ===> Total Chemistry                     231.275
  => WRF                                  3007.535
  ===> Total WRF-GC                       3238.810
 max optd  1.9364301E+31
 max taucldi  5.9122880E-07
 max taucldw  9.6694100E-07
 Switching is not necessary as we are already
 in the right domain!
 GIGC_Chunk_Run: Running for in-PET grid #           1
 GIGC_Chunk_Run: Received new grid IM, JM, LM =          15           9
          49
 =================================================
 W R F - G C   T I M E R S
    Domain           1 (Units: s)
 =================================================
  => Coupler Component                       4.868
   -- Physics & Parameterization             1.263
   -- Diagnostics Out                        0.000
  => GEOS-Chem Column                      227.474
  ===> Total Chemistry                     232.342
  => WRF                                  3025.962
  ===> Total WRF-GC                       3258.304
 max optd  1.9364301E+31
 max taucldi  5.8635214E-07
 max taucldw  9.7472514E-07
 Switching is not necessary as we are already
 in the right domain!
 GIGC_Chunk_Run: Running for in-PET grid #           1
 GIGC_Chunk_Run: Received new grid IM, JM, LM =          15           9
          49
 =================================================
 W R F - G C   T I M E R S
    Domain           1 (Units: s)
 =================================================
  => Coupler Component                       4.902
   -- Physics & Parameterization             1.272
   -- Diagnostics Out                        0.000
  => GEOS-Chem Column                      228.516
  ===> Total Chemistry                     233.419
  => WRF                                  3044.526
  ===> Total WRF-GC                       3277.945
 max optd  1.9364301E+31
 max taucldi  5.8116706E-07
 max taucldw  9.8217060E-07
 Switching is not necessary as we are already
 in the right domain!
 GIGC_Chunk_Run: Running for in-PET grid #           1
 GIGC_Chunk_Run: Received new grid IM, JM, LM =          15           9
          49
 =================================================
 W R F - G C   T I M E R S
    Domain           1 (Units: s)
 =================================================
  => Coupler Component                       4.938
   -- Physics & Parameterization             1.281
   -- Diagnostics Out                        0.000
  => GEOS-Chem Column                      229.558
  ===> Total Chemistry                     234.496
  => WRF                                  3063.105
  ===> Total WRF-GC                       3297.601
 max optd  1.9364301E+31
 max taucldi  5.7607627E-07
 max taucldw  9.8964517E-07
 Switching is not necessary as we are already
 in the right domain!
 GIGC_Chunk_Run: Running for in-PET grid #           1
 GIGC_Chunk_Run: Received new grid IM, JM, LM =          15           9
          49
 =================================================
 W R F - G C   T I M E R S
    Domain           1 (Units: s)
 =================================================
  => Coupler Component                       4.969
   -- Physics & Parameterization             1.290
   -- Diagnostics Out                        0.000
  => GEOS-Chem Column                      230.606
  ===> Total Chemistry                     235.576
  => WRF                                  3081.815
  ===> Total WRF-GC                       3317.391
 max optd  1.9364301E+31
 max taucldi  5.7146121E-07
 max taucldw  9.9715362E-07
 Switching is not necessary as we are already
 in the right domain!
 GIGC_Chunk_Run: Running for in-PET grid #           1
 GIGC_Chunk_Run: Received new grid IM, JM, LM =          15           9
          49
 =================================================
 W R F - G C   T I M E R S
    Domain           1 (Units: s)
 =================================================
  => Coupler Component                       5.005
   -- Physics & Parameterization             1.299
   -- Diagnostics Out                        0.000
  => GEOS-Chem Column                      231.654
  ===> Total Chemistry                     236.658
  => WRF                                  3100.720
  ===> Total WRF-GC                       3337.378
 max optd  1.9364301E+31
 max taucldi  5.6749542E-07
 max taucldw  1.0045504E-06
 Switching is not necessary as we are already
 in the right domain!
 GIGC_Chunk_Run: Running for in-PET grid #           1
 GIGC_Chunk_Run: Received new grid IM, JM, LM =          15           9
          49
 =================================================
 W R F - G C   T I M E R S
    Domain           1 (Units: s)
 =================================================
  => Coupler Component                       5.039
   -- Physics & Parameterization             1.308
   -- Diagnostics Out                        0.000
  => GEOS-Chem Column                      232.689
  ===> Total Chemistry                     237.728
  => WRF                                  3119.557
  ===> Total WRF-GC                       3357.285
 max optd  1.9364301E+31
 max taucldi  5.6422442E-07
 max taucldw  1.0119890E-06
 Switching is not necessary as we are already
 in the right domain!
 GIGC_Chunk_Run: Running for in-PET grid #           1
 GIGC_Chunk_Run: Received new grid IM, JM, LM =          15           9
          49
 =================================================
 W R F - G C   T I M E R S
    Domain           1 (Units: s)
 =================================================
  => Coupler Component                       5.072
   -- Physics & Parameterization             1.317
   -- Diagnostics Out                        0.000
  => GEOS-Chem Column                      233.711
  ===> Total Chemistry                     238.784
  => WRF                                  3138.327
  ===> Total WRF-GC                       3377.110
d01 2018-01-01_12:00:00 wrf: SUCCESS COMPLETE WRF
