taskid: 1354 hostname: ip-172-31-4-158
Quilting with   1 groups of   0 I/O tasks.
 Ntasks in X           64 , ntasks in Y           72
--- WARNING: traj_opt is zero, but num_traj is not zero; setting num_traj to zero.
--- NOTE: sst_update is 0, setting io_form_auxinput4 = 0 and auxinput4_interval = 0 for all domains
--- NOTE: grid_fdda is 0 for domain      1, setting gfdda interval and ending time to 0 for that domain.
--- NOTE: both grid_sfdda and pxlsm_soil_nudge are 0 for domain      1, setting sgfdda interval and ending time to 0 for that domain.
--- NOTE: obs_nudge_opt is 0 for domain      1, setting obs nudging interval and ending time to 0 for that domain.
--- NOTE: bl_pbl_physics /= 4, implies mfshconv must be 0, resetting
Need MYNN PBL for icloud_bl = 1, resetting to 0
*************************************
No physics suite selected.
Physics options will be used directly from the namelist.
*************************************
--- NOTE: RRTMG radiation is in use, setting:  levsiz=59, alevsiz=12, no_src_types=6
--- NOTE: num_soil_layers has been set to      4
WRF V3.9.1.1 MODEL
 *************************************
 Parent domain
 ids,ide,jds,jde            1         950           1         650
 ims,ime,jms,jme          144         172         184         206
 ips,ipe,jps,jpe          151         165         191         199
 *************************************
DYNAMICS OPTION: Eulerian Mass Coordinate
   alloc_space_field: domain            1 ,              203623800  bytes allocated
  med_initialdata_input: calling input_input
Max map factor in domain 1 =  1.40. Scale the dt in the model accordingly.
INPUT LandUse = "USGS"
 LANDUSE TYPE = "USGS" FOUND          33  CATEGORIES           2  SEASONS WATER CATEGORY =           16  SNOW CATEGORY =           24
INITIALIZE THREE Noah LSM RELATED TABLES
*****************************************************************
  __          _______  ______       _____  _____ _    _ _____
  \ \        / /  __ \|  ____|     / ____|/ ____| |  | |  __ \
   \ \  /\  / /| |__) | |__ ______| |  __| |    | |__| | |__) |
    \ \/  \/ / |  _  /|  __|______| | |_ | |    |  __  |  ___/
     \  /\  /  | | \ \| |         | |__| | |____| |  | | |
      \/  \/   |_|  \_\_|          \_____|\_____|_|  |_|_|
*****************************************************************
         WRF-GC MODEL, VERSION 1811.11 - WRF BINDINGS
 For errors, suggestions & feedback email linhaipeng@pku.edu.cn
*****************************************************************
    This is domain            1
 ### GIGC_Stateful_Mod: Root CPU, after READ_INPUT_FILE
  Linoz Data:  O3 climatology :                  z*=10, 12, ..., 58                             2.700E-08 1.083E-05
  Linoz Data:  Temperature climatology :         z*=10, 12, ..., 58                             1.859E+02 2.904E+02
  Linoz Data:  Column O3 above box climalology : z*=10, 12, ..., 58                             7.538E-02 3.770E+02
  Linoz Data:  P-L O3 climatology (mr/s):        z*=10, 12, ..., 58                            -1.590E-10 2.835E-11
  Linoz Data:  d(P-L)/dO3 (1/s) :                z*=10, 12, ..., 58                            -8.386E-04 7.556E-09
  Linoz Data:  d(P-L)/dT (mr/K) :                z*=10, 12, ..., 58                            -5.742E-12 4.615E-14
  Linoz Data:  d(P-L)/d(column O3) (mr/DU) :     z*=10, 12, ..., 58                            -1.921E-12 5.038E-10
 ### GIGC_Stateful_Mod: Root CPU, after LINOZ_READ
 %%%%%%%%% GIGC IN-PET GRID SWITCHING HACKS %%%%%%%%%
     (Not very) Proudly brought to you by hplin      
 Some debug information:
 ID:           1
 IM, JM, LM:          15           9          49  will be set as PAR
 Allocs: CMN T GC F
 RC at entry-point:           0
 %%%%%%%%%%%%%%%%%%%%%%%%%%%%%%%%%%%%%%%%%%%%%%%%%%%%
 No need to switch HcoState for ID           1
 Exit RC:            0
 %%%%%%%%%    FINISHED GIGC_Switch_Dims    %%%%%%%%%
 GIGC_Chunk_Init: Received new grid IM, JM, LM =          15           9
          49
     ### GIGC_INIT_SIMULATION: after Input_Opt% setups
     ### GIGC_INIT_SIMULATION: after GC_Init_All
     ### GIGC_INIT_SIMULATION: after GC_Init_Extra
     ### GIGC_INIT_SIMULATION: after INIT_FJX
 # GIGC_CHUNK_MOD: after SV save, ID =           1
 WRFGC chemics_init: Following information regarding Input_Opt% (for all doms)
 After domain           1
 HPC:  T
 LPRT:  F
 DoConv:  T
 DoDryDep:  T
 DoEmis:  T
 DoChem:  T
 DoTurb:  T
 DoWetDep:  T

 tropopause_init: DONE intialized domain            1

 mediation_integrate: med_read_wrf_chem_emissions: Open file wrfchemi_00z_d01
 HOURLY EMISSIONS UPDATE TIME        0.0       0.0
mediation_integrate: med_read_wrf_chem_emissions: Read emissions for time 2018-01-01_00:00:00
open_aux_u : error opening wrffirechemi_d01_2018-01-01_00:00:00 for reading. 100
open_aux_u : error opening wrfchemi_gocart_bg_d01 for reading. 100
d01 2018-01-01_00:00:00 Input data processed for aux input   8 for domain   1
open_aux_u : error opening wrfchemv_d01 for reading. 100
 Tile Strategy is not specified. Assuming 1D-Y
WRF TILE   1 IS    151 IE    165 JS    191 JE    199
WRF NUMBER OF TILES =   1
 max optd  7.5900919E+37
 max taucldi  0.0000000E+00
 max taucldw  0.0000000E+00
 =================================================
 W R F - G C   T I M E R S
    Domain           1 (Units: s)
 =================================================
  => Coupler Component                       0.027
   -- Physics & Parameterization             0.001
   -- Diagnostics Out                        0.000
  => GEOS-Chem Column                        0.000
  ===> Total Chemistry                       0.027
  => WRF                                     0.000
  ===> Total WRF-GC                          0.027
 max optd  7.5900919E+37
 max taucldi  1.0000007E-14
 max taucldw  1.0000007E-14
 %%%%%%%%% GIGC IN-PET GRID SWITCHING HACKS %%%%%%%%%
     (Not very) Proudly brought to you by hplin      
 Some debug information:
 ID:           1
 IM, JM, LM:          15           9          49  will be set as PAR
 Allocs: CMN T GC T
 RC at entry-point:           0
 %%%%%%%%%%%%%%%%%%%%%%%%%%%%%%%%%%%%%%%%%%%%%%%%%%%%
 No need to switch HcoState for ID           1
 Debug HcoState nSpc, NX, NY, NZ         163          15           9          49
 Exit RC:            0
 %%%%%%%%%    FINISHED GIGC_Switch_Dims    %%%%%%%%%
 GIGC_Chunk_Run: Running for in-PET grid #           1
 GIGC_Chunk_Run: Received new grid IM, JM, LM =          15           9
          49
HEMCO: Opening /fsx/HEMCO/BIOFUEL/v2014-07/biofuel.geos.4x5.nc
HEMCO: Opening /fsx/HEMCO/BROMINE/v2015-02/Bromocarb_Liang2010.nc
HEMCO: Opening /fsx/HEMCO/ACET/v2014-07/ACET_seawater.generic.1x1.nc
HEMCO: Opening /fsx/HEMCO/SOILNOX/v2014-07/DepReservoirDefault.nc
HEMCO: Opening /fsx/HEMCO/SOILNOX/v2014-07/soilNOx.landtype.generic.025x025.1L.nc
HEMCO: Opening /fsx/HEMCO/SOILNOX/v2014-07/soilNOx.climate.generic.05x05.nc
HEMCO: Opening /fsx/HEMCO/DUST_DEAD/v2014-07/dst_tibds.geos.4x5.nc
HEMCO: Opening /fsx/HEMCO/DUST_DEAD/v2014-07/GOCART_src_fn.geos.4x5.nc
HEMCO: Opening /fsx/HEMCO/MEGAN/v2018-05/MEGAN2.1_EF.geos.025x03125.nc
HEMCO: Opening /fsx/HEMCO/MEGAN/v2017-07/CLM4_PFT.geos.025x03125.nc
HEMCO: Opening /fsx/HEMCO/TIMEZONES/v2015-02/timezones_voronoi_1x1.nc
HEMCO: Opening /fsx/HEMCO/STRAT/v2015-01/Bry/GEOSCCM_Bry.200701.day.nc
HEMCO: Opening /fsx/HEMCO/STRAT/v2015-01/Bry/GEOSCCM_Bry.200701.night.nc
HEMCO: Opening /fsx/HEMCO/OMOC/v2018-01/OMOC.DJF.01x01.nc
HEMCO: Opening /fsx/HEMCO/OMOC/v2018-01/OMOC.MAM.01x01.nc
HEMCO: Opening /fsx/HEMCO/OMOC/v2018-01/OMOC.JJA.01x01.nc
HEMCO: Opening /fsx/HEMCO/OMOC/v2018-01/OMOC.SON.01x01.nc
HEMCO: Opening /fsx/HEMCO/AnnualScalar/v2014-07/AnnualScalar.geos.1x1.nc
HEMCO: Opening /fsx/HEMCO/EDGARv42/v2015-02/NO/EDGAR_hourly_NOxScal.nc
HEMCO: Opening /fsx/HEMCO/MASKS/v2018-09/EMEP_mask.geos.1x1.20151222.nc
HEMCO: Opening /fsx/HEMCO/MASKS/v2018-09/Canada_mask.geos.1x1.nc
HEMCO: Opening /fsx/HEMCO/MASKS/v2018-09/SE_Asia_mask.generic.1x1.nc
HEMCO: Opening /fsx/HEMCO/MASKS/v2018-09/MIX_Asia_mask.generic.025x025.nc
HEMCO: Opening /fsx/HEMCO/MASKS/v2018-09/CONUS_Mask.01x01.nc
HEMCO: Opening /fsx/HEMCO/MASKS/v2018-09/AF_LANDMASK.geos.05x0666.global.nc
HEMCO: Opening /fsx/HEMCO/MASKS/v2018-09/China_mask.generic.1x1.nc
HEMCO: Opening /fsx/HEMCO/MASKS/v2018-09/India_mask.generic.1x1.nc
HEMCO: Opening /fsx/HEMCO/AnnualScalar/v2014-07/AnnualScalar.geos.1x1.nc
HEMCO: Opening /fsx/HEMCO/NH3/v2014-07/NH3_geos.4x5.nc
HEMCO: Opening /fsx/HEMCO/NH3/v2018-04/NH3_Arctic_seabirds.nc
HEMCO: Opening /fsx/HEMCO/CEDS/v2018-08/2014/NO-em-anthro_CMIP_CEDS_2014.nc
HEMCO: Opening /fsx/HEMCO/CEDS/v2018-08/2014/CO-em-anthro_CMIP_CEDS_2014.nc
HEMCO: Opening /fsx/HEMCO/CEDS/v2018-08/2014/SO2-em-anthro_CMIP_CEDS_2014.nc
HEMCO: Opening /fsx/HEMCO/CEDS/v2018-08/2014/NH3-em-anthro_CMIP_CEDS_2014.nc
HEMCO: Opening /fsx/HEMCO/CEDS/v2018-08/2014/BC-em-anthro_CMIP_CEDS_2014.nc
HEMCO: Opening /fsx/HEMCO/CEDS/v2018-08/2014/OC-em-anthro_CMIP_CEDS_2014.nc
HEMCO: Opening /fsx/HEMCO/CEDS/v2018-08/2014/EOH-em-anthro_CMIP_CEDS_2014.nc
HEMCO: Opening /fsx/HEMCO/CEDS/v2018-08/2014/C2H6-em-anthro_CMIP_CEDS_2014.nc
HEMCO: Opening /fsx/HEMCO/CEDS/v2018-08/2014/C3H8-em-anthro_CMIP_CEDS_2014.nc
HEMCO: Opening /fsx/HEMCO/CEDS/v2018-08/2014/ALK4_butanes-em-anthro_CMIP_CEDS_2014.nc
HEMCO: Opening /fsx/HEMCO/CEDS/v2018-08/2014/ALK4_pentanes-em-anthro_CMIP_CEDS_2014.nc
HEMCO: Opening /fsx/HEMCO/CEDS/v2018-08/2014/ALK4_hexanes-em-anthro_CMIP_CEDS_2014.nc
HEMCO: Opening /fsx/HEMCO/CEDS/v2018-08/2014/PRPE-em-anthro_CMIP_CEDS_2014.nc
HEMCO: Opening /fsx/HEMCO/CEDS/v2018-08/2014/BENZ-em-anthro_CMIP_CEDS_2014.nc
HEMCO: Opening /fsx/HEMCO/CEDS/v2018-08/2014/TOLU-em-anthro_CMIP_CEDS_2014.nc
HEMCO: Opening /fsx/HEMCO/CEDS/v2018-08/2014/XYLE-em-anthro_CMIP_CEDS_2014.nc
HEMCO: Opening /fsx/HEMCO/CEDS/v2018-08/2014/CH2O-em-anthro_CMIP_CEDS_2014.nc
HEMCO: Opening /fsx/HEMCO/CEDS/v2018-08/2014/ALD2-em-anthro_CMIP_CEDS_2014.nc
HEMCO: Opening /fsx/HEMCO/CEDS/v2018-08/2014/MEK-em-anthro_CMIP_CEDS_2014.nc
HEMCO: Opening /fsx/HEMCO/CEDS/v2018-08/2014/HCOOH-em-anthro_CMIP_CEDS_2014.nc
HEMCO: Opening /fsx/HEMCO/C2H6_2010/v2017-05/C2H6_global_anth_biof.201001.nc
HEMCO: Opening /fsx/HEMCO/NEI2011/v2017-02-MM/01/NEI11_0.1x0.1_201101_monmean.nc
HEMCO: Opening /fsx/HEMCO/NEI2011/v2017-02-MM/01/NEI11_0.1x0.1_201101_monmean_egu.nc
HEMCO: Opening /fsx/HEMCO/NEI2011/v2017-02-MM/01/NEI11_0.1x0.1_201101_monmean_egupk.nc
HEMCO: Opening /fsx/HEMCO/NEI2011/v2017-02-MM/01/NEI11_0.1x0.1_201101_monmean_oilgas.nc
HEMCO: Opening /fsx/HEMCO/NEI2011/v2017-02-MM/01/NEI11_0.1x0.1_201101_monmean_othpt.nc
HEMCO: Opening /fsx/HEMCO/NEI2011/v2017-02-MM/01/NEI11_0.1x0.1_201101_monmean_ptnonipm.nc
HEMCO: Opening /fsx/HEMCO/IODINE/v2017-09/CH3I_monthly_emissions_Ordonez_2012_COARDS.nc
HEMCO: Opening /fsx/HEMCO/IODINE/v2017-09/CH2I2_monthly_emissions_Ordonez_2012_COARDS.nc
HEMCO: Opening /fsx/HEMCO/IODINE/v2017-09/CH2ICl_monthly_emissions_Ordonez_2012_COARDS.nc
HEMCO: Opening /fsx/HEMCO/IODINE/v2017-09/CH2IBr_monthly_emissions_Ordonez_2012_COARDS.nc
HEMCO: Opening /fsx/HEMCO/CEDS/v2018-08/2014/CO-em-anthro_CMIP_CEDS_2014.nc
HEMCO: Opening /fsx/HEMCO/CEDS/v2018-08/2014/SO2-em-anthro_CMIP_CEDS_2014.nc
HEMCO: Opening /fsx/HEMCO/CEDS/v2018-08/2014/NH3-em-anthro_CMIP_CEDS_2014.nc
HEMCO: Opening /fsx/HEMCO/CEDS/v2018-08/2014/BC-em-anthro_CMIP_CEDS_2014.nc
HEMCO: Opening /fsx/HEMCO/CEDS/v2018-08/2014/OC-em-anthro_CMIP_CEDS_2014.nc
HEMCO: Opening /fsx/HEMCO/CEDS/v2018-08/2014/EOH-em-anthro_CMIP_CEDS_2014.nc
HEMCO: Opening /fsx/HEMCO/CEDS/v2018-08/2014/C2H6-em-anthro_CMIP_CEDS_2014.nc
HEMCO: Opening /fsx/HEMCO/CEDS/v2018-08/2014/C3H8-em-anthro_CMIP_CEDS_2014.nc
HEMCO: Opening /fsx/HEMCO/CEDS/v2018-08/2014/ALK4_butanes-em-anthro_CMIP_CEDS_2014.nc
HEMCO: Opening /fsx/HEMCO/CEDS/v2018-08/2014/ALK4_pentanes-em-anthro_CMIP_CEDS_2014.nc
HEMCO: Opening /fsx/HEMCO/CEDS/v2018-08/2014/ALK4_hexanes-em-anthro_CMIP_CEDS_2014.nc
HEMCO: Opening /fsx/HEMCO/CEDS/v2018-08/2014/PRPE-em-anthro_CMIP_CEDS_2014.nc
HEMCO: Opening /fsx/HEMCO/CEDS/v2018-08/2014/BENZ-em-anthro_CMIP_CEDS_2014.nc
HEMCO: Opening /fsx/HEMCO/CEDS/v2018-08/2014/TOLU-em-anthro_CMIP_CEDS_2014.nc
HEMCO: Opening /fsx/HEMCO/CEDS/v2018-08/2014/XYLE-em-anthro_CMIP_CEDS_2014.nc
HEMCO: Opening /fsx/HEMCO/CEDS/v2018-08/2014/CH2O-em-anthro_CMIP_CEDS_2014.nc
HEMCO: Opening /fsx/HEMCO/CEDS/v2018-08/2014/ALD2-em-anthro_CMIP_CEDS_2014.nc
HEMCO: Opening /fsx/HEMCO/CEDS/v2018-08/2014/MEK-em-anthro_CMIP_CEDS_2014.nc
HEMCO: Opening /fsx/HEMCO/CEDS/v2018-08/2014/HCOOH-em-anthro_CMIP_CEDS_2014.nc
HEMCO: Opening /fsx/HEMCO/CEDS/v2018-08/2014/NO-em-anthro_CMIP_CEDS_2014.nc
HEMCO: Opening /fsx/HEMCO/AEIC/v2015-01/AEIC.47L.gen.1x1.nc
HEMCO: Opening /fsx/HEMCO/ALD2/v2017-03/resp.geos.2x25.nc
HEMCO: Opening /fsx/HEMCO/DMS/v2015-07/DMS_lana.geos.1x1.nc
HEMCO: Opening /fsx/HEMCO/ALD2/v2017-03/ALD2_seawater.geos.2x25.nc
HEMCO: Opening /fsx/HEMCO/DUST_DEAD/v2014-07/dst_tvbds.geos.4x5.nc
HEMCO: Opening /fsx/HEMCO/DUST_DEAD/v2018-04/PM25FINE_ECLIPSE_2015.geos.2x25.nc
HEMCO: Opening /fsx/HEMCO/SOA/v2014-07/NVOC.geos.1x1.nc
HEMCO: Opening /fsx/HEMCO/GFED4/v2015-10/2016/GFED4_gen.025x025.201601.nc
HEMCO: Opening /fsx/HEMCO/UVALBEDO/v2015-03/uvalbedo.geos.2x25.nc
HEMCO: Opening /fsx/HEMCO/GMI/v2015-02/gmi.clim.ACET.geos5.2x25.nc
HEMCO: Opening /fsx/HEMCO/GMI/v2015-02/gmi.clim.ACTA.geos5.2x25.nc
HEMCO: Opening /fsx/HEMCO/GMI/v2015-02/gmi.clim.ALD2.geos5.2x25.nc
HEMCO: Opening /fsx/HEMCO/GMI/v2015-02/gmi.clim.ALK4.geos5.2x25.nc
HEMCO: Opening /fsx/HEMCO/GMI/v2015-02/gmi.clim.C2H6.geos5.2x25.nc
HEMCO: Opening /fsx/HEMCO/GMI/v2015-02/gmi.clim.C3H8.geos5.2x25.nc
HEMCO: Opening /fsx/HEMCO/GMI/v2015-02/gmi.clim.CCl4.geos5.2x25.nc
HEMCO: Opening /fsx/HEMCO/GMI/v2015-02/gmi.clim.CF2Cl2.geos5.2x25.nc
HEMCO: Opening /fsx/HEMCO/GMI/v2015-02/gmi.clim.CF2ClBr.geos5.2x25.nc
HEMCO: Opening /fsx/HEMCO/GMI/v2015-02/gmi.clim.CFC113.geos5.2x25.nc
HEMCO: Opening /fsx/HEMCO/GMI/v2015-02/gmi.clim.CFC114.geos5.2x25.nc
HEMCO: Opening /fsx/HEMCO/GMI/v2015-02/gmi.clim.CFC115.geos5.2x25.nc
HEMCO: Opening /fsx/HEMCO/GMI/v2015-02/gmi.clim.CFCl3.geos5.2x25.nc
HEMCO: Opening /fsx/HEMCO/GMI/v2015-02/gmi.clim.CH2O.geos5.2x25.nc
HEMCO: Opening /fsx/HEMCO/GMI/v2015-02/gmi.clim.CH3CCl3.geos5.2x25.nc
HEMCO: Opening /fsx/HEMCO/GMI/v2015-02/gmi.clim.CH3Cl.geos5.2x25.nc
HEMCO: Opening /fsx/HEMCO/GMI/v2015-02/gmi.clim.CH4.geos5.2x25.nc
HEMCO: Opening /fsx/HEMCO/GMI/v2015-02/gmi.clim.CO.geos5.2x25.nc
HEMCO: Opening /fsx/HEMCO/GMI/v2015-02/gmi.clim.Cl.geos5.2x25.nc
HEMCO: Opening /fsx/HEMCO/GMI/v2015-02/gmi.clim.Cl2.geos5.2x25.nc
HEMCO: Opening /fsx/HEMCO/GMI/v2015-02/gmi.clim.Cl2O2.geos5.2x25.nc
HEMCO: Opening /fsx/HEMCO/GMI/v2015-02/gmi.clim.ClO.geos5.2x25.nc
HEMCO: Opening /fsx/HEMCO/GMI/v2015-02/gmi.clim.EOH.geos5.2x25.nc
HEMCO: Opening /fsx/HEMCO/GMI/v2015-02/gmi.clim.GLYC.geos5.2x25.nc
HEMCO: Opening /fsx/HEMCO/GMI/v2015-02/gmi.clim.GLYX.geos5.2x25.nc
HEMCO: Opening /fsx/HEMCO/GMI/v2015-02/gmi.clim.H2402.geos5.2x25.nc
HEMCO: Opening /fsx/HEMCO/GMI/v2015-02/gmi.clim.H2O.geos5.2x25.nc
HEMCO: Opening /fsx/HEMCO/GMI/v2015-02/gmi.clim.H2O2.geos5.2x25.nc
HEMCO: Opening /fsx/HEMCO/GMI/v2015-02/gmi.clim.HAC.geos5.2x25.nc
HEMCO: Opening /fsx/HEMCO/GMI/v2015-02/gmi.clim.HCFC141b.geos5.2x25.nc
HEMCO: Opening /fsx/HEMCO/GMI/v2015-02/gmi.clim.HCFC142b.geos5.2x25.nc
HEMCO: Opening /fsx/HEMCO/GMI/v2015-02/gmi.clim.HCFC22.geos5.2x25.nc
HEMCO: Opening /fsx/HEMCO/GMI/v2015-02/gmi.clim.HCOOH.geos5.2x25.20170108.nc
HEMCO: Opening /fsx/HEMCO/GMI/v2015-02/gmi.clim.HCl.geos5.2x25.nc
HEMCO: Opening /fsx/HEMCO/GMI/v2015-02/gmi.clim.HNO2.geos5.2x25.nc
HEMCO: Opening /fsx/HEMCO/GMI/v2015-02/gmi.clim.HNO3.geos5.2x25.nc
HEMCO: Opening /fsx/HEMCO/GMI/v2015-02/gmi.clim.HNO4.geos5.2x25.nc
HEMCO: Opening /fsx/HEMCO/GMI/v2015-02/gmi.clim.HOCl.geos5.2x25.nc
HEMCO: Opening /fsx/HEMCO/GMI/v2015-02/gmi.clim.ISN1.geos5.2x25.nc
HEMCO: Opening /fsx/HEMCO/GMI/v2015-02/gmi.clim.ISOP.geos5.2x25.nc
HEMCO: Opening /fsx/HEMCO/GMI/v2015-02/gmi.clim.MACR.geos5.2x25.nc
HEMCO: Opening /fsx/HEMCO/GMI/v2015-02/gmi.clim.MAP.geos5.2x25.nc
HEMCO: Opening /fsx/HEMCO/GMI/v2015-02/gmi.clim.MEK.geos5.2x25.nc
HEMCO: Opening /fsx/HEMCO/GMI/v2015-02/gmi.clim.MGLY.geos5.2x25.nc
HEMCO: Opening /fsx/HEMCO/GMI/v2015-02/gmi.clim.MP.geos5.2x25.nc
HEMCO: Opening /fsx/HEMCO/GMI/v2015-02/gmi.clim.MVK.geos5.2x25.nc
HEMCO: Opening /fsx/HEMCO/GMI/v2015-02/gmi.clim.N2O.geos5.2x25.nc
HEMCO: Opening /fsx/HEMCO/GMI/v2015-02/gmi.clim.N2O5.geos5.2x25.nc
HEMCO: Opening /fsx/HEMCO/GMI/v2015-02/gmi.clim.NO.geos5.2x25.nc
HEMCO: Opening /fsx/HEMCO/GMI/v2015-02/gmi.clim.NO2.geos5.2x25.nc
HEMCO: Opening /fsx/HEMCO/GMI/v2015-02/gmi.clim.NO3.geos5.2x25.nc
HEMCO: Opening /fsx/HEMCO/GMI/v2015-02/gmi.clim.O3.geos5.2x25.nc
HEMCO: Opening /fsx/HEMCO/GMI/v2015-02/gmi.clim.OClO.geos5.2x25.nc
HEMCO: Opening /fsx/HEMCO/GMI/v2015-02/gmi.clim.PAN.geos5.2x25.nc
HEMCO: Opening /fsx/HEMCO/GMI/v2015-02/gmi.clim.NPMN.geos5.2x25.nc
HEMCO: Opening /fsx/HEMCO/GMI/v2015-02/gmi.clim.IPMN.geos5.2x25.nc
HEMCO: Opening /fsx/HEMCO/GMI/v2015-02/gmi.clim.PPN.geos5.2x25.nc
HEMCO: Opening /fsx/HEMCO/GMI/v2015-02/gmi.clim.PRPE.geos5.2x25.nc
HEMCO: Opening /fsx/HEMCO/GMI/v2015-02/gmi.clim.R4N2.geos5.2x25.nc
HEMCO: Opening /fsx/HEMCO/GMI/v2015-02/gmi.clim.RCHO.geos5.2x25.nc
HEMCO: Opening /fsx/HEMCO/GMI/v2015-02/gmi.clim.RIPA.geos5.2x25.nc
HEMCO: Opening /fsx/HEMCO/GMI/v2015-02/gmi.clim.RIPB.geos5.2x25.nc
HEMCO: Opening /fsx/HEMCO/GMI/v2015-02/gmi.clim.RIPD.geos5.2x25.nc
HEMCO: Opening /fsx/HEMCO/GMI/v2015-02/gmi.clim.OH.geos5.2x25.nc
HEMCO: Opening /fsx/HEMCO/NOAA_GMD/v2018-01/monthly.gridded.surface.methane.1979-2020.1x1.nc
HEMCO: Opening /fsx/HEMCO/GEIA/v2014-07/GEIA_monthscal.generic.1x1.nc
HEMCO: Opening /fsx/HEMCO/EMEP/v2015-03/EMEP.Seasonal.geos.1x1.nc
HEMCO: Opening /fsx/HEMCO/BROMINE/v2015-02/BromoCarb_Season.nc
HEMCO: Opening /fsx/HEMCO/EDGARv43/v2016-11/EDGAR_v43.Seasonal.1x1.nc
HEMCO: Opening /fsx/HEMCO/NEI2005/v2014-09/scaling/NEI99.dow.geos.1x1.nc
HEMCO: Opening /fsx/HEMCO/VOLCANO/v2015-02/2009/volc_so2_gen.1x1.47L.200901.nc
HEMCO: Opening /fsx/HEMCO/SOILNOX/v2014-07/soilNOx.fert_res.generic.05x05.nc
 vdinti: pbl height will be limited to bottom           25  model levels. top is
     431.250100000000       hpa
 =================================================
 W R F - G C   T I M E R S
    Domain           1 (Units: s)
 =================================================
  => Coupler Component                       0.049
   -- Physics & Parameterization             0.009
   -- Diagnostics Out                        0.000
  => GEOS-Chem Column                      154.856
  ===> Total Chemistry                     154.906
  => WRF                                    17.295
  ===> Total WRF-GC                        172.200
 max optd  7.5425170E+37
 max taucldi  6.5200567E-07
 max taucldw  9.0803078E-06
 Switching is not necessary as we are already
 in the right domain!
 GIGC_Chunk_Run: Running for in-PET grid #           1
 GIGC_Chunk_Run: Received new grid IM, JM, LM =          15           9
          49
 =================================================
 W R F - G C   T I M E R S
    Domain           1 (Units: s)
 =================================================
  => Coupler Component                       0.075
   -- Physics & Parameterization             0.019
   -- Diagnostics Out                        0.000
  => GEOS-Chem Column                      157.626
  ===> Total Chemistry                     157.700
  => WRF                                    36.048
  ===> Total WRF-GC                        193.748
 max optd  7.5425170E+37
 max taucldi  1.2950211E-06
 max taucldw  1.8538363E-05
 Switching is not necessary as we are already
 in the right domain!
 GIGC_Chunk_Run: Running for in-PET grid #           1
 GIGC_Chunk_Run: Received new grid IM, JM, LM =          15           9
          49
 =================================================
 W R F - G C   T I M E R S
    Domain           1 (Units: s)
 =================================================
  => Coupler Component                       0.111
   -- Physics & Parameterization             0.028
   -- Diagnostics Out                        0.000
  => GEOS-Chem Column                      159.198
  ===> Total Chemistry                     159.309
  => WRF                                    55.142
  ===> Total WRF-GC                        214.451
 max optd  7.5425170E+37
 max taucldi  1.9351303E-06
 max taucldw  2.8197292E-05
 Switching is not necessary as we are already
 in the right domain!
 GIGC_Chunk_Run: Running for in-PET grid #           1
 GIGC_Chunk_Run: Received new grid IM, JM, LM =          15           9
          49
 =================================================
 W R F - G C   T I M E R S
    Domain           1 (Units: s)
 =================================================
  => Coupler Component                       0.142
   -- Physics & Parameterization             0.036
   -- Diagnostics Out                        0.000
  => GEOS-Chem Column                      160.525
  ===> Total Chemistry                     160.667
  => WRF                                    73.648
  ===> Total WRF-GC                        234.316
 max optd  7.5425170E+37
 max taucldi  2.4605240E-06
 max taucldw  3.7955564E-05
 Switching is not necessary as we are already
 in the right domain!
 GIGC_Chunk_Run: Running for in-PET grid #           1
 GIGC_Chunk_Run: Received new grid IM, JM, LM =          15           9
          49
 =================================================
 W R F - G C   T I M E R S
    Domain           1 (Units: s)
 =================================================
  => Coupler Component                       0.186
   -- Physics & Parameterization             0.046
   -- Diagnostics Out                        0.000
  => GEOS-Chem Column                      161.781
  ===> Total Chemistry                     161.967
  => WRF                                    91.956
  ===> Total WRF-GC                        253.923
 max optd  7.5425170E+37
 max taucldi  3.0159381E-06
 max taucldw  4.7852296E-05
 Switching is not necessary as we are already
 in the right domain!
 GIGC_Chunk_Run: Running for in-PET grid #           1
 GIGC_Chunk_Run: Received new grid IM, JM, LM =          15           9
          49
 =================================================
 W R F - G C   T I M E R S
    Domain           1 (Units: s)
 =================================================
  => Coupler Component                       0.222
   -- Physics & Parameterization             0.054
   -- Diagnostics Out                        0.000
  => GEOS-Chem Column                      163.016
  ===> Total Chemistry                     163.238
  => WRF                                   110.202
  ===> Total WRF-GC                        273.440
 max optd  7.5425170E+37
 max taucldi  3.5443884E-06
 max taucldw  5.7358142E-05
 Switching is not necessary as we are already
 in the right domain!
 GIGC_Chunk_Run: Running for in-PET grid #           1
 GIGC_Chunk_Run: Received new grid IM, JM, LM =          15           9
          49
 =================================================
 W R F - G C   T I M E R S
    Domain           1 (Units: s)
 =================================================
  => Coupler Component                       0.255
   -- Physics & Parameterization             0.063
   -- Diagnostics Out                        0.000
  => GEOS-Chem Column                      164.255
  ===> Total Chemistry                     164.510
  => WRF                                   128.463
  ===> Total WRF-GC                        292.973
 max optd  7.5425170E+37
 max taucldi  4.0221985E-06
 max taucldw  6.7394154E-05
 Switching is not necessary as we are already
 in the right domain!
 GIGC_Chunk_Run: Running for in-PET grid #           1
 GIGC_Chunk_Run: Received new grid IM, JM, LM =          15           9
          49
 =================================================
 W R F - G C   T I M E R S
    Domain           1 (Units: s)
 =================================================
  => Coupler Component                       0.289
   -- Physics & Parameterization             0.072
   -- Diagnostics Out                        0.000
  => GEOS-Chem Column                      165.472
  ===> Total Chemistry                     165.761
  => WRF                                   146.659
  ===> Total WRF-GC                        312.420
 max optd  7.5425170E+37
 max taucldi  1.2937343E-02
 max taucldw  7.8167148E-05
 Switching is not necessary as we are already
 in the right domain!
 GIGC_Chunk_Run: Running for in-PET grid #           1
 GIGC_Chunk_Run: Received new grid IM, JM, LM =          15           9
          49
 =================================================
 W R F - G C   T I M E R S
    Domain           1 (Units: s)
 =================================================
  => Coupler Component                       0.324
   -- Physics & Parameterization             0.081
   -- Diagnostics Out                        0.000
  => GEOS-Chem Column                      166.688
  ===> Total Chemistry                     167.012
  => WRF                                   164.882
  ===> Total WRF-GC                        331.894
 max optd  7.5425170E+37
 max taucldi  0.1003370    
 max taucldw  8.8201698E-05
 Switching is not necessary as we are already
 in the right domain!
 GIGC_Chunk_Run: Running for in-PET grid #           1
 GIGC_Chunk_Run: Received new grid IM, JM, LM =          15           9
          49
 =================================================
 W R F - G C   T I M E R S
    Domain           1 (Units: s)
 =================================================
  => Coupler Component                       0.363
   -- Physics & Parameterization             0.090
   -- Diagnostics Out                        0.000
  => GEOS-Chem Column                      167.909
  ===> Total Chemistry                     168.272
  => WRF                                   183.158
  ===> Total WRF-GC                        351.430
 max optd  7.5425170E+37
 max taucldi  0.1486652    
 max taucldw  1.0130912E-04
 Switching is not necessary as we are already
 in the right domain!
 GIGC_Chunk_Run: Running for in-PET grid #           1
 GIGC_Chunk_Run: Received new grid IM, JM, LM =          15           9
          49
 =================================================
 W R F - G C   T I M E R S
    Domain           1 (Units: s)
 =================================================
  => Coupler Component                       0.394
   -- Physics & Parameterization             0.099
   -- Diagnostics Out                        0.000
  => GEOS-Chem Column                      169.114
  ===> Total Chemistry                     169.508
  => WRF                                   201.344
  ===> Total WRF-GC                        370.852
 max optd  7.5425170E+37
 max taucldi  0.1840838    
 max taucldw  1.1729218E-04
 Switching is not necessary as we are already
 in the right domain!
 GIGC_Chunk_Run: Running for in-PET grid #           1
 GIGC_Chunk_Run: Received new grid IM, JM, LM =          15           9
          49
 =================================================
 W R F - G C   T I M E R S
    Domain           1 (Units: s)
 =================================================
  => Coupler Component                       0.425
   -- Physics & Parameterization             0.108
   -- Diagnostics Out                        0.000
  => GEOS-Chem Column                      170.288
  ===> Total Chemistry                     170.713
  => WRF                                   219.437
  ===> Total WRF-GC                        390.150
 HOURLY EMISSIONS UPDATE TIME     3600.0       0.0
mediation_integrate: med_read_wrf_chem_emissions: Read emissions for time 2018-01-01_01:00:00
 max optd  7.5425170E+37
 max taucldi  0.2173922    
 max taucldw  1.3514432E-04
 Switching is not necessary as we are already
 in the right domain!
 GIGC_Chunk_Run: Running for in-PET grid #           1
 GIGC_Chunk_Run: Received new grid IM, JM, LM =          15           9
          49
 =================================================
 W R F - G C   T I M E R S
    Domain           1 (Units: s)
 =================================================
  => Coupler Component                       0.459
   -- Physics & Parameterization             0.116
   -- Diagnostics Out                        0.000
  => GEOS-Chem Column                      171.471
  ===> Total Chemistry                     171.930
  => WRF                                   237.646
  ===> Total WRF-GC                        409.576
 max optd  7.5425170E+37
 max taucldi  0.2472841    
 max taucldw  1.5389964E-04
 Switching is not necessary as we are already
 in the right domain!
 GIGC_Chunk_Run: Running for in-PET grid #           1
 GIGC_Chunk_Run: Received new grid IM, JM, LM =          15           9
          49
 =================================================
 W R F - G C   T I M E R S
    Domain           1 (Units: s)
 =================================================
  => Coupler Component                       0.490
   -- Physics & Parameterization             0.125
   -- Diagnostics Out                        0.000
  => GEOS-Chem Column                      172.637
  ===> Total Chemistry                     173.127
  => WRF                                   255.824
  ===> Total WRF-GC                        428.951
 max optd  7.5425170E+37
 max taucldi  0.2650252    
 max taucldw  1.7194205E-04
 Switching is not necessary as we are already
 in the right domain!
 GIGC_Chunk_Run: Running for in-PET grid #           1
 GIGC_Chunk_Run: Received new grid IM, JM, LM =          15           9
          49
 =================================================
 W R F - G C   T I M E R S
    Domain           1 (Units: s)
 =================================================
  => Coupler Component                       0.526
   -- Physics & Parameterization             0.135
   -- Diagnostics Out                        0.000
  => GEOS-Chem Column                      173.781
  ===> Total Chemistry                     174.306
  => WRF                                   273.908
  ===> Total WRF-GC                        448.214
 max optd  7.5425170E+37
 max taucldi  0.2812444    
 max taucldw  1.9029086E-04
 Switching is not necessary as we are already
 in the right domain!
 GIGC_Chunk_Run: Running for in-PET grid #           1
 GIGC_Chunk_Run: Received new grid IM, JM, LM =          15           9
          49
 =================================================
 W R F - G C   T I M E R S
    Domain           1 (Units: s)
 =================================================
  => Coupler Component                       0.558
   -- Physics & Parameterization             0.143
   -- Diagnostics Out                        0.000
  => GEOS-Chem Column                      174.856
  ===> Total Chemistry                     175.415
  => WRF                                   292.106
  ===> Total WRF-GC                        467.521
 max optd  7.5425170E+37
 max taucldi  0.2962561    
 max taucldw  2.2746425E-04
 Switching is not necessary as we are already
 in the right domain!
 GIGC_Chunk_Run: Running for in-PET grid #           1
 GIGC_Chunk_Run: Received new grid IM, JM, LM =          15           9
          49
 =================================================
 W R F - G C   T I M E R S
    Domain           1 (Units: s)
 =================================================
  => Coupler Component                       0.591
   -- Physics & Parameterization             0.152
   -- Diagnostics Out                        0.000
  => GEOS-Chem Column                      175.929
  ===> Total Chemistry                     176.521
  => WRF                                   310.316
  ===> Total WRF-GC                        486.837
 max optd  7.5425170E+37
 max taucldi  0.3005699    
 max taucldw  2.6776470E-04
 Switching is not necessary as we are already
 in the right domain!
 GIGC_Chunk_Run: Running for in-PET grid #           1
 GIGC_Chunk_Run: Received new grid IM, JM, LM =          15           9
          49
 =================================================
 W R F - G C   T I M E R S
    Domain           1 (Units: s)
 =================================================
  => Coupler Component                       0.626
   -- Physics & Parameterization             0.161
   -- Diagnostics Out                        0.000
  => GEOS-Chem Column                      176.991
  ===> Total Chemistry                     177.617
  => WRF                                   328.489
  ===> Total WRF-GC                        506.105
 max optd  7.5425170E+37
 max taucldi  0.2963731    
 max taucldw  3.0894627E-04
 Switching is not necessary as we are already
 in the right domain!
 GIGC_Chunk_Run: Running for in-PET grid #           1
 GIGC_Chunk_Run: Received new grid IM, JM, LM =          15           9
          49
 =================================================
 W R F - G C   T I M E R S
    Domain           1 (Units: s)
 =================================================
  => Coupler Component                       0.659
   -- Physics & Parameterization             0.170
   -- Diagnostics Out                        0.000
  => GEOS-Chem Column                      178.062
  ===> Total Chemistry                     178.721
  => WRF                                   346.741
  ===> Total WRF-GC                        525.461
 max optd  7.5425170E+37
 max taucldi  0.2938098    
 max taucldw  3.4718242E-04
 Switching is not necessary as we are already
 in the right domain!
 GIGC_Chunk_Run: Running for in-PET grid #           1
 GIGC_Chunk_Run: Received new grid IM, JM, LM =          15           9
          49
 =================================================
 W R F - G C   T I M E R S
    Domain           1 (Units: s)
 =================================================
  => Coupler Component                       0.691
   -- Physics & Parameterization             0.179
   -- Diagnostics Out                        0.000
  => GEOS-Chem Column                      179.136
  ===> Total Chemistry                     179.827
  => WRF                                   365.088
  ===> Total WRF-GC                        544.915
 max optd  7.5425170E+37
 max taucldi  0.2933230    
 max taucldw  3.7983395E-04
 Switching is not necessary as we are already
 in the right domain!
 GIGC_Chunk_Run: Running for in-PET grid #           1
 GIGC_Chunk_Run: Received new grid IM, JM, LM =          15           9
          49
 =================================================
 W R F - G C   T I M E R S
    Domain           1 (Units: s)
 =================================================
  => Coupler Component                       0.729
   -- Physics & Parameterization             0.187
   -- Diagnostics Out                        0.000
  => GEOS-Chem Column                      180.214
  ===> Total Chemistry                     180.943
  => WRF                                   383.178
  ===> Total WRF-GC                        564.121
 max optd  7.5425170E+37
 max taucldi  0.2856730    
 max taucldw  4.0485550E-04
 Switching is not necessary as we are already
 in the right domain!
 GIGC_Chunk_Run: Running for in-PET grid #           1
 GIGC_Chunk_Run: Received new grid IM, JM, LM =          15           9
          49
 =================================================
 W R F - G C   T I M E R S
    Domain           1 (Units: s)
 =================================================
  => Coupler Component                       0.766
   -- Physics & Parameterization             0.196
   -- Diagnostics Out                        0.000
  => GEOS-Chem Column                      181.291
  ===> Total Chemistry                     182.057
  => WRF                                   401.329
  ===> Total WRF-GC                        583.386
 max optd  7.5425170E+37
 max taucldi  0.2730438    
 max taucldw  4.2135848E-04
 Switching is not necessary as we are already
 in the right domain!
 GIGC_Chunk_Run: Running for in-PET grid #           1
 GIGC_Chunk_Run: Received new grid IM, JM, LM =          15           9
          49
 =================================================
 W R F - G C   T I M E R S
    Domain           1 (Units: s)
 =================================================
  => Coupler Component                       0.805
   -- Physics & Parameterization             0.205
   -- Diagnostics Out                        0.000
  => GEOS-Chem Column                      182.379
  ===> Total Chemistry                     183.183
  => WRF                                   419.597
  ===> Total WRF-GC                        602.780
 max optd  7.5425170E+37
 max taucldi  0.2697088    
 max taucldw  4.2937612E-04
 Switching is not necessary as we are already
 in the right domain!
 GIGC_Chunk_Run: Running for in-PET grid #           1
 GIGC_Chunk_Run: Received new grid IM, JM, LM =          15           9
          49
 =================================================
 W R F - G C   T I M E R S
    Domain           1 (Units: s)
 =================================================
  => Coupler Component                       0.841
   -- Physics & Parameterization             0.214
   -- Diagnostics Out                        0.000
  => GEOS-Chem Column                      183.461
  ===> Total Chemistry                     184.302
  => WRF                                   437.746
  ===> Total WRF-GC                        622.048
 HOURLY EMISSIONS UPDATE TIME     7200.0       0.0
mediation_integrate: med_read_wrf_chem_emissions: Read emissions for time 2018-01-01_02:00:00
 max optd  7.5425170E+37
 max taucldi  0.2664617    
 max taucldw  4.2979742E-04
 Switching is not necessary as we are already
 in the right domain!
 GIGC_Chunk_Run: Running for in-PET grid #           1
 GIGC_Chunk_Run: Received new grid IM, JM, LM =          15           9
          49
 =================================================
 W R F - G C   T I M E R S
    Domain           1 (Units: s)
 =================================================
  => Coupler Component                       0.879
   -- Physics & Parameterization             0.223
   -- Diagnostics Out                        0.000
  => GEOS-Chem Column                      184.535
  ===> Total Chemistry                     185.415
  => WRF                                   455.908
  ===> Total WRF-GC                        641.322
 max optd  7.5425170E+37
 max taucldi  0.2543343    
 max taucldw  4.2418958E-04
 Switching is not necessary as we are already
 in the right domain!
 GIGC_Chunk_Run: Running for in-PET grid #           1
 GIGC_Chunk_Run: Received new grid IM, JM, LM =          15           9
          49
 =================================================
 W R F - G C   T I M E R S
    Domain           1 (Units: s)
 =================================================
  => Coupler Component                       0.917
   -- Physics & Parameterization             0.232
   -- Diagnostics Out                        0.000
  => GEOS-Chem Column                      185.616
  ===> Total Chemistry                     186.533
  => WRF                                   474.118
  ===> Total WRF-GC                        660.651
 max optd  7.5425170E+37
 max taucldi  0.2555750    
 max taucldw  4.1395854E-04
 Switching is not necessary as we are already
 in the right domain!
 GIGC_Chunk_Run: Running for in-PET grid #           1
 GIGC_Chunk_Run: Received new grid IM, JM, LM =          15           9
          49
 =================================================
 W R F - G C   T I M E R S
    Domain           1 (Units: s)
 =================================================
  => Coupler Component                       0.953
   -- Physics & Parameterization             0.241
   -- Diagnostics Out                        0.000
  => GEOS-Chem Column                      186.679
  ===> Total Chemistry                     187.632
  => WRF                                   492.207
  ===> Total WRF-GC                        679.839
 max optd  7.5425170E+37
 max taucldi  0.2571414    
 max taucldw  4.1420714E-04
 Switching is not necessary as we are already
 in the right domain!
 GIGC_Chunk_Run: Running for in-PET grid #           1
 GIGC_Chunk_Run: Received new grid IM, JM, LM =          15           9
          49
 =================================================
 W R F - G C   T I M E R S
    Domain           1 (Units: s)
 =================================================
  => Coupler Component                       1.003
   -- Physics & Parameterization             0.250
   -- Diagnostics Out                        0.000
  => GEOS-Chem Column                      187.721
  ===> Total Chemistry                     188.723
  => WRF                                   510.313
  ===> Total WRF-GC                        699.037
 max optd  7.5425170E+37
 max taucldi  0.2684135    
 max taucldw  4.2030096E-04
 Switching is not necessary as we are already
 in the right domain!
 GIGC_Chunk_Run: Running for in-PET grid #           1
 GIGC_Chunk_Run: Received new grid IM, JM, LM =          15           9
          49
 =================================================
 W R F - G C   T I M E R S
    Domain           1 (Units: s)
 =================================================
  => Coupler Component                       1.038
   -- Physics & Parameterization             0.259
   -- Diagnostics Out                        0.000
  => GEOS-Chem Column                      188.796
  ===> Total Chemistry                     189.834
  => WRF                                   528.449
  ===> Total WRF-GC                        718.283
 max optd  7.5425170E+37
 max taucldi  0.2758200    
 max taucldw  4.2165996E-04
 Switching is not necessary as we are already
 in the right domain!
 GIGC_Chunk_Run: Running for in-PET grid #           1
 GIGC_Chunk_Run: Received new grid IM, JM, LM =          15           9
          49
 =================================================
 W R F - G C   T I M E R S
    Domain           1 (Units: s)
 =================================================
  => Coupler Component                       1.076
   -- Physics & Parameterization             0.268
   -- Diagnostics Out                        0.000
  => GEOS-Chem Column                      189.869
  ===> Total Chemistry                     190.945
  => WRF                                   546.571
  ===> Total WRF-GC                        737.516
 max optd  7.5425170E+37
 max taucldi  0.2685461    
 max taucldw  4.1871698E-04
 Switching is not necessary as we are already
 in the right domain!
 GIGC_Chunk_Run: Running for in-PET grid #           1
 GIGC_Chunk_Run: Received new grid IM, JM, LM =          15           9
          49
 =================================================
 W R F - G C   T I M E R S
    Domain           1 (Units: s)
 =================================================
  => Coupler Component                       1.113
   -- Physics & Parameterization             0.277
   -- Diagnostics Out                        0.000
  => GEOS-Chem Column                      190.951
  ===> Total Chemistry                     192.065
  => WRF                                   564.697
  ===> Total WRF-GC                        756.761
 max optd  7.5425170E+37
 max taucldi  0.2613712    
 max taucldw  4.1216201E-04
 Switching is not necessary as we are already
 in the right domain!
 GIGC_Chunk_Run: Running for in-PET grid #           1
 GIGC_Chunk_Run: Received new grid IM, JM, LM =          15           9
          49
 =================================================
 W R F - G C   T I M E R S
    Domain           1 (Units: s)
 =================================================
  => Coupler Component                       1.149
   -- Physics & Parameterization             0.286
   -- Diagnostics Out                        0.000
  => GEOS-Chem Column                      192.034
  ===> Total Chemistry                     193.183
  => WRF                                   582.758
  ===> Total WRF-GC                        775.941
 max optd  7.5425170E+37
 max taucldi  0.2664656    
 max taucldw  4.0285493E-04
 Switching is not necessary as we are already
 in the right domain!
 GIGC_Chunk_Run: Running for in-PET grid #           1
 GIGC_Chunk_Run: Received new grid IM, JM, LM =          15           9
          49
 =================================================
 W R F - G C   T I M E R S
    Domain           1 (Units: s)
 =================================================
  => Coupler Component                       1.185
   -- Physics & Parameterization             0.295
   -- Diagnostics Out                        0.000
  => GEOS-Chem Column                      193.124
  ===> Total Chemistry                     194.309
  => WRF                                   600.833
  ===> Total WRF-GC                        795.142
 max optd  7.5425170E+37
 max taucldi  0.2811651    
 max taucldw  3.9194987E-04
 Switching is not necessary as we are already
 in the right domain!
 GIGC_Chunk_Run: Running for in-PET grid #           1
 GIGC_Chunk_Run: Received new grid IM, JM, LM =          15           9
          49
 =================================================
 W R F - G C   T I M E R S
    Domain           1 (Units: s)
 =================================================
  => Coupler Component                       1.223
   -- Physics & Parameterization             0.304
   -- Diagnostics Out                        0.000
  => GEOS-Chem Column                      194.201
  ===> Total Chemistry                     195.424
  => WRF                                   618.944
  ===> Total WRF-GC                        814.368
 max optd  7.5425170E+37
 max taucldi  0.2715378    
 max taucldw  3.8009099E-04
 Switching is not necessary as we are already
 in the right domain!
 GIGC_Chunk_Run: Running for in-PET grid #           1
 GIGC_Chunk_Run: Received new grid IM, JM, LM =          15           9
          49
 =================================================
 W R F - G C   T I M E R S
    Domain           1 (Units: s)
 =================================================
  => Coupler Component                       1.260
   -- Physics & Parameterization             0.313
   -- Diagnostics Out                        0.000
  => GEOS-Chem Column                      195.281
  ===> Total Chemistry                     196.541
  => WRF                                   636.982
  ===> Total WRF-GC                        833.523
 max optd  7.5425170E+37
 max taucldi  0.2594091    
 max taucldw  3.6761884E-04
 Switching is not necessary as we are already
 in the right domain!
 GIGC_Chunk_Run: Running for in-PET grid #           1
 GIGC_Chunk_Run: Received new grid IM, JM, LM =          15           9
          49
 =================================================
 W R F - G C   T I M E R S
    Domain           1 (Units: s)
 =================================================
  => Coupler Component                       1.297
   -- Physics & Parameterization             0.322
   -- Diagnostics Out                        0.000
  => GEOS-Chem Column                      196.363
  ===> Total Chemistry                     197.660
  => WRF                                   655.035
  ===> Total WRF-GC                        852.695
 HOURLY EMISSIONS UPDATE TIME    10800.0       0.0
mediation_integrate: med_read_wrf_chem_emissions: Read emissions for time 2018-01-01_03:00:00
 max optd  7.5425170E+37
 max taucldi  0.2503212    
 max taucldw  3.5492089E-04
 Switching is not necessary as we are already
 in the right domain!
 GIGC_Chunk_Run: Running for in-PET grid #           1
 GIGC_Chunk_Run: Received new grid IM, JM, LM =          15           9
          49
 =================================================
 W R F - G C   T I M E R S
    Domain           1 (Units: s)
 =================================================
  => Coupler Component                       1.332
   -- Physics & Parameterization             0.331
   -- Diagnostics Out                        0.000
  => GEOS-Chem Column                      197.452
  ===> Total Chemistry                     198.783
  => WRF                                   673.139
  ===> Total WRF-GC                        871.923
 max optd  7.5425170E+37
 max taucldi  0.2304386    
 max taucldw  3.4228605E-04
 Switching is not necessary as we are already
 in the right domain!
 GIGC_Chunk_Run: Running for in-PET grid #           1
 GIGC_Chunk_Run: Received new grid IM, JM, LM =          15           9
          49
 =================================================
 W R F - G C   T I M E R S
    Domain           1 (Units: s)
 =================================================
  => Coupler Component                       1.367
   -- Physics & Parameterization             0.340
   -- Diagnostics Out                        0.000
  => GEOS-Chem Column                      198.534
  ===> Total Chemistry                     199.901
  => WRF                                   691.196
  ===> Total WRF-GC                        891.097
 max optd  7.5425170E+37
 max taucldi  0.2213314    
 max taucldw  3.2975734E-04
 Switching is not necessary as we are already
 in the right domain!
 GIGC_Chunk_Run: Running for in-PET grid #           1
 GIGC_Chunk_Run: Received new grid IM, JM, LM =          15           9
          49
 =================================================
 W R F - G C   T I M E R S
    Domain           1 (Units: s)
 =================================================
  => Coupler Component                       1.403
   -- Physics & Parameterization             0.349
   -- Diagnostics Out                        0.000
  => GEOS-Chem Column                      199.624
  ===> Total Chemistry                     201.027
  => WRF                                   709.286
  ===> Total WRF-GC                        910.313
 max optd  7.5425170E+37
 max taucldi  0.2014481    
 max taucldw  3.1684106E-04
 Switching is not necessary as we are already
 in the right domain!
 GIGC_Chunk_Run: Running for in-PET grid #           1
 GIGC_Chunk_Run: Received new grid IM, JM, LM =          15           9
          49
 =================================================
 W R F - G C   T I M E R S
    Domain           1 (Units: s)
 =================================================
  => Coupler Component                       1.441
   -- Physics & Parameterization             0.358
   -- Diagnostics Out                        0.000
  => GEOS-Chem Column                      200.705
  ===> Total Chemistry                     202.147
  => WRF                                   727.335
  ===> Total WRF-GC                        929.482
 max optd  7.5425170E+37
 max taucldi  0.1990026    
 max taucldw  3.0313092E-04
 Switching is not necessary as we are already
 in the right domain!
 GIGC_Chunk_Run: Running for in-PET grid #           1
 GIGC_Chunk_Run: Received new grid IM, JM, LM =          15           9
          49
 =================================================
 W R F - G C   T I M E R S
    Domain           1 (Units: s)
 =================================================
  => Coupler Component                       1.478
   -- Physics & Parameterization             0.367
   -- Diagnostics Out                        0.000
  => GEOS-Chem Column                      201.791
  ===> Total Chemistry                     203.269
  => WRF                                   745.369
  ===> Total WRF-GC                        948.637
 max optd  7.5425170E+37
 max taucldi  0.1973885    
 max taucldw  2.8809227E-04
 Switching is not necessary as we are already
 in the right domain!
 GIGC_Chunk_Run: Running for in-PET grid #           1
 GIGC_Chunk_Run: Received new grid IM, JM, LM =          15           9
          49
 =================================================
 W R F - G C   T I M E R S
    Domain           1 (Units: s)
 =================================================
  => Coupler Component                       1.518
   -- Physics & Parameterization             0.375
   -- Diagnostics Out                        0.000
  => GEOS-Chem Column                      202.860
  ===> Total Chemistry                     204.378
  => WRF                                   763.677
  ===> Total WRF-GC                        968.055
 max optd  7.5425170E+37
 max taucldi  0.1963785    
 max taucldw  2.7096519E-04
 Switching is not necessary as we are already
 in the right domain!
 GIGC_Chunk_Run: Running for in-PET grid #           1
 GIGC_Chunk_Run: Received new grid IM, JM, LM =          15           9
          49
 =================================================
 W R F - G C   T I M E R S
    Domain           1 (Units: s)
 =================================================
  => Coupler Component                       1.555
   -- Physics & Parameterization             0.385
   -- Diagnostics Out                        0.000
  => GEOS-Chem Column                      203.935
  ===> Total Chemistry                     205.490
  => WRF                                   781.837
  ===> Total WRF-GC                        987.327
 max optd  7.5425170E+37
 max taucldi  0.1944338    
 max taucldw  2.5140122E-04
 Switching is not necessary as we are already
 in the right domain!
 GIGC_Chunk_Run: Running for in-PET grid #           1
 GIGC_Chunk_Run: Received new grid IM, JM, LM =          15           9
          49
 =================================================
 W R F - G C   T I M E R S
    Domain           1 (Units: s)
 =================================================
  => Coupler Component                       1.596
   -- Physics & Parameterization             0.394
   -- Diagnostics Out                        0.000
  => GEOS-Chem Column                      204.992
  ===> Total Chemistry                     206.588
  => WRF                                   799.874
  ===> Total WRF-GC                       1006.463
 max optd  7.5425170E+37
 max taucldi  0.1885182    
 max taucldw  2.3081948E-04
 Switching is not necessary as we are already
 in the right domain!
 GIGC_Chunk_Run: Running for in-PET grid #           1
 GIGC_Chunk_Run: Received new grid IM, JM, LM =          15           9
          49
 =================================================
 W R F - G C   T I M E R S
    Domain           1 (Units: s)
 =================================================
  => Coupler Component                       1.634
   -- Physics & Parameterization             0.403
   -- Diagnostics Out                        0.000
  => GEOS-Chem Column                      206.079
  ===> Total Chemistry                     207.712
  => WRF                                   818.066
  ===> Total WRF-GC                       1025.778
 max optd  7.5425170E+37
 max taucldi  0.1810904    
 max taucldw  2.1160420E-04
 Switching is not necessary as we are already
 in the right domain!
 GIGC_Chunk_Run: Running for in-PET grid #           1
 GIGC_Chunk_Run: Received new grid IM, JM, LM =          15           9
          49
 =================================================
 W R F - G C   T I M E R S
    Domain           1 (Units: s)
 =================================================
  => Coupler Component                       1.669
   -- Physics & Parameterization             0.412
   -- Diagnostics Out                        0.000
  => GEOS-Chem Column                      207.164
  ===> Total Chemistry                     208.833
  => WRF                                   836.175
  ===> Total WRF-GC                       1045.008
 max optd  7.5425170E+37
 max taucldi  0.1614713    
 max taucldw  1.9629323E-04
 Switching is not necessary as we are already
 in the right domain!
 GIGC_Chunk_Run: Running for in-PET grid #           1
 GIGC_Chunk_Run: Received new grid IM, JM, LM =          15           9
          49
 =================================================
 W R F - G C   T I M E R S
    Domain           1 (Units: s)
 =================================================
  => Coupler Component                       1.706
   -- Physics & Parameterization             0.421
   -- Diagnostics Out                        0.000
  => GEOS-Chem Column                      208.248
  ===> Total Chemistry                     209.954
  => WRF                                   854.241
  ===> Total WRF-GC                       1064.195
 max optd  7.5425170E+37
 max taucldi  0.1301112    
 max taucldw  1.8567833E-04
 Switching is not necessary as we are already
 in the right domain!
 GIGC_Chunk_Run: Running for in-PET grid #           1
 GIGC_Chunk_Run: Received new grid IM, JM, LM =          15           9
          49
 =================================================
 W R F - G C   T I M E R S
    Domain           1 (Units: s)
 =================================================
  => Coupler Component                       1.741
   -- Physics & Parameterization             0.430
   -- Diagnostics Out                        0.000
  => GEOS-Chem Column                      209.333
  ===> Total Chemistry                     211.074
  => WRF                                   872.357
  ===> Total WRF-GC                       1083.431
 HOURLY EMISSIONS UPDATE TIME    14400.0       0.0
mediation_integrate: med_read_wrf_chem_emissions: Read emissions for time 2018-01-01_04:00:00
 max optd  7.5425170E+37
 max taucldi  9.9170253E-02
 max taucldw  1.7976739E-04
 Switching is not necessary as we are already
 in the right domain!
 GIGC_Chunk_Run: Running for in-PET grid #           1
 GIGC_Chunk_Run: Received new grid IM, JM, LM =          15           9
          49
 =================================================
 W R F - G C   T I M E R S
    Domain           1 (Units: s)
 =================================================
  => Coupler Component                       1.777
   -- Physics & Parameterization             0.439
   -- Diagnostics Out                        0.000
  => GEOS-Chem Column                      210.419
  ===> Total Chemistry                     212.196
  => WRF                                   890.474
  ===> Total WRF-GC                       1102.670
 max optd  7.5425170E+37
 max taucldi  7.2601326E-02
 max taucldw  1.8367937E-04
 Switching is not necessary as we are already
 in the right domain!
 GIGC_Chunk_Run: Running for in-PET grid #           1
 GIGC_Chunk_Run: Received new grid IM, JM, LM =          15           9
          49
 =================================================
 W R F - G C   T I M E R S
    Domain           1 (Units: s)
 =================================================
  => Coupler Component                       1.814
   -- Physics & Parameterization             0.448
   -- Diagnostics Out                        0.000
  => GEOS-Chem Column                      211.498
  ===> Total Chemistry                     213.312
  => WRF                                   908.575
  ===> Total WRF-GC                       1121.887
 max optd  7.5425170E+37
 max taucldi  5.2378997E-02
 max taucldw  1.8678245E-04
 Switching is not necessary as we are already
 in the right domain!
 GIGC_Chunk_Run: Running for in-PET grid #           1
 GIGC_Chunk_Run: Received new grid IM, JM, LM =          15           9
          49
 =================================================
 W R F - G C   T I M E R S
    Domain           1 (Units: s)
 =================================================
  => Coupler Component                       1.849
   -- Physics & Parameterization             0.457
   -- Diagnostics Out                        0.000
  => GEOS-Chem Column                      212.590
  ===> Total Chemistry                     214.439
  => WRF                                   926.779
  ===> Total WRF-GC                       1141.218
 max optd  7.5425170E+37
 max taucldi  3.8441017E-02
 max taucldw  1.8872309E-04
 Switching is not necessary as we are already
 in the right domain!
 GIGC_Chunk_Run: Running for in-PET grid #           1
 GIGC_Chunk_Run: Received new grid IM, JM, LM =          15           9
          49
 =================================================
 W R F - G C   T I M E R S
    Domain           1 (Units: s)
 =================================================
  => Coupler Component                       1.886
   -- Physics & Parameterization             0.466
   -- Diagnostics Out                        0.000
  => GEOS-Chem Column                      213.642
  ===> Total Chemistry                     215.528
  => WRF                                   944.880
  ===> Total WRF-GC                       1160.408
 max optd  7.5425170E+37
 max taucldi  2.8212221E-02
 max taucldw  1.8941822E-04
 Switching is not necessary as we are already
 in the right domain!
 GIGC_Chunk_Run: Running for in-PET grid #           1
 GIGC_Chunk_Run: Received new grid IM, JM, LM =          15           9
          49
 =================================================
 W R F - G C   T I M E R S
    Domain           1 (Units: s)
 =================================================
  => Coupler Component                       1.924
   -- Physics & Parameterization             0.475
   -- Diagnostics Out                        0.000
  => GEOS-Chem Column                      214.721
  ===> Total Chemistry                     216.645
  => WRF                                   963.010
  ===> Total WRF-GC                       1179.655
 max optd  7.5425170E+37
 max taucldi  1.4792492E-02
 max taucldw  1.8883104E-04
 Switching is not necessary as we are already
 in the right domain!
 GIGC_Chunk_Run: Running for in-PET grid #           1
 GIGC_Chunk_Run: Received new grid IM, JM, LM =          15           9
          49
 =================================================
 W R F - G C   T I M E R S
    Domain           1 (Units: s)
 =================================================
  => Coupler Component                       1.960
   -- Physics & Parameterization             0.484
   -- Diagnostics Out                        0.000
  => GEOS-Chem Column                      215.810
  ===> Total Chemistry                     217.770
  => WRF                                   981.130
  ===> Total WRF-GC                       1198.900
 max optd  7.5425170E+37
 max taucldi  4.1253315E-03
 max taucldw  1.9036759E-04
 Switching is not necessary as we are already
 in the right domain!
 GIGC_Chunk_Run: Running for in-PET grid #           1
 GIGC_Chunk_Run: Received new grid IM, JM, LM =          15           9
          49
 =================================================
 W R F - G C   T I M E R S
    Domain           1 (Units: s)
 =================================================
  => Coupler Component                       1.997
   -- Physics & Parameterization             0.493
   -- Diagnostics Out                        0.000
  => GEOS-Chem Column                      216.888
  ===> Total Chemistry                     218.886
  => WRF                                   999.288
  ===> Total WRF-GC                       1218.173
 max optd  7.5425170E+37
 max taucldi  3.9226032E-04
 max taucldw  2.0360980E-04
 Switching is not necessary as we are already
 in the right domain!
 GIGC_Chunk_Run: Running for in-PET grid #           1
 GIGC_Chunk_Run: Received new grid IM, JM, LM =          15           9
          49
 =================================================
 W R F - G C   T I M E R S
    Domain           1 (Units: s)
 =================================================
  => Coupler Component                       2.037
   -- Physics & Parameterization             0.502
   -- Diagnostics Out                        0.000
  => GEOS-Chem Column                      217.970
  ===> Total Chemistry                     220.007
  => WRF                                  1017.376
  ===> Total WRF-GC                       1237.383
 max optd  7.5425170E+37
 max taucldi  1.1079288E-04
 max taucldw  2.1556191E-04
 Switching is not necessary as we are already
 in the right domain!
 GIGC_Chunk_Run: Running for in-PET grid #           1
 GIGC_Chunk_Run: Received new grid IM, JM, LM =          15           9
          49
 =================================================
 W R F - G C   T I M E R S
    Domain           1 (Units: s)
 =================================================
  => Coupler Component                       2.074
   -- Physics & Parameterization             0.511
   -- Diagnostics Out                        0.000
  => GEOS-Chem Column                      219.051
  ===> Total Chemistry                     221.124
  => WRF                                  1035.487
  ===> Total WRF-GC                       1256.611
 max optd  7.5425170E+37
 max taucldi  3.2211359E-05
 max taucldw  2.2603611E-04
 Switching is not necessary as we are already
 in the right domain!
 GIGC_Chunk_Run: Running for in-PET grid #           1
 GIGC_Chunk_Run: Received new grid IM, JM, LM =          15           9
          49
 =================================================
 W R F - G C   T I M E R S
    Domain           1 (Units: s)
 =================================================
  => Coupler Component                       2.109
   -- Physics & Parameterization             0.520
   -- Diagnostics Out                        0.000
  => GEOS-Chem Column                      220.137
  ===> Total Chemistry                     222.246
  => WRF                                  1053.588
  ===> Total WRF-GC                       1275.835
 max optd  7.5425170E+37
 max taucldi  3.2923883E-05
 max taucldw  2.3481360E-04
 Switching is not necessary as we are already
 in the right domain!
 GIGC_Chunk_Run: Running for in-PET grid #           1
 GIGC_Chunk_Run: Received new grid IM, JM, LM =          15           9
          49
 =================================================
 W R F - G C   T I M E R S
    Domain           1 (Units: s)
 =================================================
  => Coupler Component                       2.148
   -- Physics & Parameterization             0.529
   -- Diagnostics Out                        0.000
  => GEOS-Chem Column                      221.215
  ===> Total Chemistry                     223.364
  => WRF                                  1071.654
  ===> Total WRF-GC                       1295.018
 max optd  7.5425170E+37
 max taucldi  3.4175835E-05
 max taucldw  2.4134098E-04
 Switching is not necessary as we are already
 in the right domain!
 GIGC_Chunk_Run: Running for in-PET grid #           1
 GIGC_Chunk_Run: Received new grid IM, JM, LM =          15           9
          49
 =================================================
 W R F - G C   T I M E R S
    Domain           1 (Units: s)
 =================================================
  => Coupler Component                       2.185
   -- Physics & Parameterization             0.537
   -- Diagnostics Out                        0.000
  => GEOS-Chem Column                      222.298
  ===> Total Chemistry                     224.483
  => WRF                                  1089.687
  ===> Total WRF-GC                       1314.170
 HOURLY EMISSIONS UPDATE TIME    18000.0       0.0
mediation_integrate: med_read_wrf_chem_emissions: Read emissions for time 2018-01-01_05:00:00
 max optd  7.5425170E+37
 max taucldi  3.5124649E-05
 max taucldw  2.4541936E-04
 Switching is not necessary as we are already
 in the right domain!
 GIGC_Chunk_Run: Running for in-PET grid #           1
 GIGC_Chunk_Run: Received new grid IM, JM, LM =          15           9
          49
 =================================================
 W R F - G C   T I M E R S
    Domain           1 (Units: s)
 =================================================
  => Coupler Component                       2.225
   -- Physics & Parameterization             0.546
   -- Diagnostics Out                        0.000
  => GEOS-Chem Column                      223.375
  ===> Total Chemistry                     225.601
  => WRF                                  1107.822
  ===> Total WRF-GC                       1333.422
 max optd  7.5425170E+37
 max taucldi  3.5775516E-05
 max taucldw  2.4726841E-04
 Switching is not necessary as we are already
 in the right domain!
 GIGC_Chunk_Run: Running for in-PET grid #           1
 GIGC_Chunk_Run: Received new grid IM, JM, LM =          15           9
          49
 =================================================
 W R F - G C   T I M E R S
    Domain           1 (Units: s)
 =================================================
  => Coupler Component                       2.266
   -- Physics & Parameterization             0.556
   -- Diagnostics Out                        0.000
  => GEOS-Chem Column                      224.460
  ===> Total Chemistry                     226.725
  => WRF                                  1125.904
  ===> Total WRF-GC                       1352.629
 max optd  7.5425170E+37
 max taucldi  3.6100166E-05
 max taucldw  2.4682799E-04
 Switching is not necessary as we are already
 in the right domain!
 GIGC_Chunk_Run: Running for in-PET grid #           1
 GIGC_Chunk_Run: Received new grid IM, JM, LM =          15           9
          49
 =================================================
 W R F - G C   T I M E R S
    Domain           1 (Units: s)
 =================================================
  => Coupler Component                       2.302
   -- Physics & Parameterization             0.565
   -- Diagnostics Out                        0.000
  => GEOS-Chem Column                      225.543
  ===> Total Chemistry                     227.845
  => WRF                                  1143.971
  ===> Total WRF-GC                       1371.817
 max optd  7.5425170E+37
 max taucldi  3.6125974E-05
 max taucldw  2.4437826E-04
 Switching is not necessary as we are already
 in the right domain!
 GIGC_Chunk_Run: Running for in-PET grid #           1
 GIGC_Chunk_Run: Received new grid IM, JM, LM =          15           9
          49
 =================================================
 W R F - G C   T I M E R S
    Domain           1 (Units: s)
 =================================================
  => Coupler Component                       2.341
   -- Physics & Parameterization             0.574
   -- Diagnostics Out                        0.000
  => GEOS-Chem Column                      226.622
  ===> Total Chemistry                     228.963
  => WRF                                  1162.087
  ===> Total WRF-GC                       1391.050
 max optd  7.5425170E+37
 max taucldi  3.5888621E-05
 max taucldw  2.4017743E-04
 Switching is not necessary as we are already
 in the right domain!
 GIGC_Chunk_Run: Running for in-PET grid #           1
 GIGC_Chunk_Run: Received new grid IM, JM, LM =          15           9
          49
 =================================================
 W R F - G C   T I M E R S
    Domain           1 (Units: s)
 =================================================
  => Coupler Component                       2.380
   -- Physics & Parameterization             0.584
   -- Diagnostics Out                        0.000
  => GEOS-Chem Column                      227.706
  ===> Total Chemistry                     230.086
  => WRF                                  1180.239
  ===> Total WRF-GC                       1410.325
 max optd  7.5425170E+37
 max taucldi  3.5463767E-05
 max taucldw  2.3472295E-04
 Switching is not necessary as we are already
 in the right domain!
 GIGC_Chunk_Run: Running for in-PET grid #           1
 GIGC_Chunk_Run: Received new grid IM, JM, LM =          15           9
          49
 =================================================
 W R F - G C   T I M E R S
    Domain           1 (Units: s)
 =================================================
  => Coupler Component                       2.424
   -- Physics & Parameterization             0.593
   -- Diagnostics Out                        0.000
  => GEOS-Chem Column                      228.770
  ===> Total Chemistry                     231.194
  => WRF                                  1198.292
  ===> Total WRF-GC                       1429.485
 max optd  7.5425170E+37
 max taucldi  3.4911827E-05
 max taucldw  2.2844766E-04
 Switching is not necessary as we are already
 in the right domain!
 GIGC_Chunk_Run: Running for in-PET grid #           1
 GIGC_Chunk_Run: Received new grid IM, JM, LM =          15           9
          49
 =================================================
 W R F - G C   T I M E R S
    Domain           1 (Units: s)
 =================================================
  => Coupler Component                       2.463
   -- Physics & Parameterization             0.602
   -- Diagnostics Out                        0.000
  => GEOS-Chem Column                      229.835
  ===> Total Chemistry                     232.297
  => WRF                                  1216.479
  ===> Total WRF-GC                       1448.777
 max optd  7.5425170E+37
 max taucldi  3.4710662E-05
 max taucldw  2.2172173E-04
 Switching is not necessary as we are already
 in the right domain!
 GIGC_Chunk_Run: Running for in-PET grid #           1
 GIGC_Chunk_Run: Received new grid IM, JM, LM =          15           9
          49
 =================================================
 W R F - G C   T I M E R S
    Domain           1 (Units: s)
 =================================================
  => Coupler Component                       2.500
   -- Physics & Parameterization             0.610
   -- Diagnostics Out                        0.000
  => GEOS-Chem Column                      230.915
  ===> Total Chemistry                     233.415
  => WRF                                  1234.571
  ===> Total WRF-GC                       1467.986
 max optd  7.5425170E+37
 max taucldi  3.4851746E-05
 max taucldw  2.1488989E-04
 Switching is not necessary as we are already
 in the right domain!
 GIGC_Chunk_Run: Running for in-PET grid #           1
 GIGC_Chunk_Run: Received new grid IM, JM, LM =          15           9
          49
 =================================================
 W R F - G C   T I M E R S
    Domain           1 (Units: s)
 =================================================
  => Coupler Component                       2.539
   -- Physics & Parameterization             0.620
   -- Diagnostics Out                        0.000
  => GEOS-Chem Column                      231.996
  ===> Total Chemistry                     234.535
  => WRF                                  1252.715
  ===> Total WRF-GC                       1487.250
 max optd  7.5425170E+37
 max taucldi  3.4829831E-05
 max taucldw  2.0815285E-04
 Switching is not necessary as we are already
 in the right domain!
 GIGC_Chunk_Run: Running for in-PET grid #           1
 GIGC_Chunk_Run: Received new grid IM, JM, LM =          15           9
          49
 =================================================
 W R F - G C   T I M E R S
    Domain           1 (Units: s)
 =================================================
  => Coupler Component                       2.580
   -- Physics & Parameterization             0.628
   -- Diagnostics Out                        0.000
  => GEOS-Chem Column                      233.066
  ===> Total Chemistry                     235.646
  => WRF                                  1271.088
  ===> Total WRF-GC                       1506.734
 max optd  7.5425170E+37
 max taucldi  3.4672619E-05
 max taucldw  2.0165184E-04
 Switching is not necessary as we are already
 in the right domain!
 GIGC_Chunk_Run: Running for in-PET grid #           1
 GIGC_Chunk_Run: Received new grid IM, JM, LM =          15           9
          49
 =================================================
 W R F - G C   T I M E R S
    Domain           1 (Units: s)
 =================================================
  => Coupler Component                       2.616
   -- Physics & Parameterization             0.637
   -- Diagnostics Out                        0.000
  => GEOS-Chem Column                      234.154
  ===> Total Chemistry                     236.770
  => WRF                                  1289.203
  ===> Total WRF-GC                       1525.973
 max optd  7.5425170E+37
 max taucldi  3.4412737E-05
 max taucldw  1.9548200E-04
 Switching is not necessary as we are already
 in the right domain!
 GIGC_Chunk_Run: Running for in-PET grid #           1
 GIGC_Chunk_Run: Received new grid IM, JM, LM =          15           9
          49
 =================================================
 W R F - G C   T I M E R S
    Domain           1 (Units: s)
 =================================================
  => Coupler Component                       2.653
   -- Physics & Parameterization             0.646
   -- Diagnostics Out                        0.000
  => GEOS-Chem Column                      235.232
  ===> Total Chemistry                     237.885
  => WRF                                  1307.298
  ===> Total WRF-GC                       1545.182
 HOURLY EMISSIONS UPDATE TIME    21600.0       0.0
mediation_integrate: med_read_wrf_chem_emissions: Read emissions for time 2018-01-01_06:00:00
 max optd  7.5425170E+37
 max taucldi  3.4078810E-05
 max taucldw  1.8977791E-04
 Switching is not necessary as we are already
 in the right domain!
 GIGC_Chunk_Run: Running for in-PET grid #           1
 GIGC_Chunk_Run: Received new grid IM, JM, LM =          15           9
          49
 =================================================
 W R F - G C   T I M E R S
    Domain           1 (Units: s)
 =================================================
  => Coupler Component                       2.692
   -- Physics & Parameterization             0.655
   -- Diagnostics Out                        0.000
  => GEOS-Chem Column                      236.319
  ===> Total Chemistry                     239.011
  => WRF                                  1765.949
  ===> Total WRF-GC                       2004.960
 max optd  7.5425170E+37
 max taucldi  3.3694192E-05
 max taucldw  1.8448976E-04
 Switching is not necessary as we are already
 in the right domain!
 GIGC_Chunk_Run: Running for in-PET grid #           1
 GIGC_Chunk_Run: Received new grid IM, JM, LM =          15           9
          49
 =================================================
 W R F - G C   T I M E R S
    Domain           1 (Units: s)
 =================================================
  => Coupler Component                       2.731
   -- Physics & Parameterization             0.664
   -- Diagnostics Out                        0.000
  => GEOS-Chem Column                      237.399
  ===> Total Chemistry                     240.130
  => WRF                                  1784.060
  ===> Total WRF-GC                       2024.190
 max optd  7.5425170E+37
 max taucldi  3.3276596E-05
 max taucldw  1.7954114E-04
 Switching is not necessary as we are already
 in the right domain!
 GIGC_Chunk_Run: Running for in-PET grid #           1
 GIGC_Chunk_Run: Received new grid IM, JM, LM =          15           9
          49
 =================================================
 W R F - G C   T I M E R S
    Domain           1 (Units: s)
 =================================================
  => Coupler Component                       2.769
   -- Physics & Parameterization             0.673
   -- Diagnostics Out                        0.000
  => GEOS-Chem Column                      238.488
  ===> Total Chemistry                     241.257
  => WRF                                  1802.303
  ===> Total WRF-GC                       2043.561
 max optd  7.5425170E+37
 max taucldi  3.2846878E-05
 max taucldw  1.7504026E-04
 Switching is not necessary as we are already
 in the right domain!
 GIGC_Chunk_Run: Running for in-PET grid #           1
 GIGC_Chunk_Run: Received new grid IM, JM, LM =          15           9
          49
 =================================================
 W R F - G C   T I M E R S
    Domain           1 (Units: s)
 =================================================
  => Coupler Component                       2.813
[...]
  => GEOS-Chem Column                      287.205
  ===> Total Chemistry                     291.665
  => WRF                                  2619.201
  ===> Total WRF-GC                       2910.867
 HOURLY EMISSIONS UPDATE TIME    36000.0       0.0
mediation_integrate: med_read_wrf_chem_emissions: Read emissions for time 2018-01-01_10:00:00
 max optd  7.5425170E+37
 max taucldi  7.9802006E-02
 max taucldw  1.8811085E-04
 Switching is not necessary as we are already
 in the right domain!
 GIGC_Chunk_Run: Running for in-PET grid #           1
 GIGC_Chunk_Run: Received new grid IM, JM, LM =          15           9
          49
 =================================================
 W R F - G C   T I M E R S
    Domain           1 (Units: s)
 =================================================
  => Coupler Component                       4.501
   -- Physics & Parameterization             1.081
   -- Diagnostics Out                        0.000
  => GEOS-Chem Column                      288.296
  ===> Total Chemistry                     292.797
  => WRF                                  2637.396
  ===> Total WRF-GC                       2930.193
 max optd  7.5425170E+37
 max taucldi  8.8727839E-02
 max taucldw  1.9073630E-04
 Switching is not necessary as we are already
 in the right domain!
 GIGC_Chunk_Run: Running for in-PET grid #           1
 GIGC_Chunk_Run: Received new grid IM, JM, LM =          15           9
          49
 =================================================
 W R F - G C   T I M E R S
    Domain           1 (Units: s)
 =================================================
  => Coupler Component                       4.540
   -- Physics & Parameterization             1.090
   -- Diagnostics Out                        0.000
  => GEOS-Chem Column                      289.388
  ===> Total Chemistry                     293.929
  => WRF                                  2655.512
  ===> Total WRF-GC                       2949.441
 max optd  7.5425170E+37
 max taucldi  9.7007200E-02
 max taucldw  1.9322128E-04
 Switching is not necessary as we are already
 in the right domain!
 GIGC_Chunk_Run: Running for in-PET grid #           1
 GIGC_Chunk_Run: Received new grid IM, JM, LM =          15           9
          49
 =================================================
 W R F - G C   T I M E R S
    Domain           1 (Units: s)
 =================================================
  => Coupler Component                       4.578
   -- Physics & Parameterization             1.098
   -- Diagnostics Out                        0.000
  => GEOS-Chem Column                      290.480
  ===> Total Chemistry                     295.058
  => WRF                                  2673.620
  ===> Total WRF-GC                       2968.678
 max optd  7.5425170E+37
 max taucldi  0.1023340    
 max taucldw  1.9552663E-04
 Switching is not necessary as we are already
 in the right domain!
 GIGC_Chunk_Run: Running for in-PET grid #           1
 GIGC_Chunk_Run: Received new grid IM, JM, LM =          15           9
          49
 =================================================
 W R F - G C   T I M E R S
    Domain           1 (Units: s)
 =================================================
  => Coupler Component                       4.616
   -- Physics & Parameterization             1.107
   -- Diagnostics Out                        0.000
  => GEOS-Chem Column                      291.571
  ===> Total Chemistry                     296.188
  => WRF                                  2691.821
  ===> Total WRF-GC                       2988.009
 max optd  7.5425170E+37
 max taucldi  0.1076970    
 max taucldw  1.9765088E-04
 Switching is not necessary as we are already
 in the right domain!
 GIGC_Chunk_Run: Running for in-PET grid #           1
 GIGC_Chunk_Run: Received new grid IM, JM, LM =          15           9
          49
 =================================================
 W R F - G C   T I M E R S
    Domain           1 (Units: s)
 =================================================
  => Coupler Component                       4.654
   -- Physics & Parameterization             1.116
   -- Diagnostics Out                        0.000
  => GEOS-Chem Column                      292.662
  ===> Total Chemistry                     297.316
  => WRF                                  2709.968
  ===> Total WRF-GC                       3007.284
 max optd  7.5425170E+37
 max taucldi  0.1129190    
 max taucldw  1.9951526E-04
 Switching is not necessary as we are already
 in the right domain!
 GIGC_Chunk_Run: Running for in-PET grid #           1
 GIGC_Chunk_Run: Received new grid IM, JM, LM =          15           9
          49
 =================================================
 W R F - G C   T I M E R S
    Domain           1 (Units: s)
 =================================================
  => Coupler Component                       4.692
   -- Physics & Parameterization             1.124
   -- Diagnostics Out                        0.000
  => GEOS-Chem Column                      293.744
  ===> Total Chemistry                     298.436
  => WRF                                  2728.041
  ===> Total WRF-GC                       3026.477
 max optd  7.5425170E+37
 max taucldi  0.1200101    
 max taucldw  2.0205701E-04
 Switching is not necessary as we are already
 in the right domain!
 GIGC_Chunk_Run: Running for in-PET grid #           1
 GIGC_Chunk_Run: Received new grid IM, JM, LM =          15           9
          49
 =================================================
 W R F - G C   T I M E R S
    Domain           1 (Units: s)
 =================================================
  => Coupler Component                       4.727
   -- Physics & Parameterization             1.134
   -- Diagnostics Out                        0.000
  => GEOS-Chem Column                      294.832
  ===> Total Chemistry                     299.559
  => WRF                                  2746.196
  ===> Total WRF-GC                       3045.756
 max optd  7.5425170E+37
 max taucldi  0.1209176    
 max taucldw  2.0651787E-04
 Switching is not necessary as we are already
 in the right domain!
 GIGC_Chunk_Run: Running for in-PET grid #           1
 GIGC_Chunk_Run: Received new grid IM, JM, LM =          15           9
          49
 =================================================
 W R F - G C   T I M E R S
    Domain           1 (Units: s)
 =================================================
  => Coupler Component                       4.764
   -- Physics & Parameterization             1.142
   -- Diagnostics Out                        0.000
  => GEOS-Chem Column                      295.909
  ===> Total Chemistry                     300.672
  => WRF                                  2764.332
  ===> Total WRF-GC                       3065.005
 max optd  7.5425170E+37
 max taucldi  0.1197146    
 max taucldw  2.1092322E-04
 Switching is not necessary as we are already
 in the right domain!
 GIGC_Chunk_Run: Running for in-PET grid #           1
 GIGC_Chunk_Run: Received new grid IM, JM, LM =          15           9
          49
 =================================================
 W R F - G C   T I M E R S
    Domain           1 (Units: s)
 =================================================
  => Coupler Component                       4.801
   -- Physics & Parameterization             1.151
   -- Diagnostics Out                        0.000
  => GEOS-Chem Column                      296.995
  ===> Total Chemistry                     301.796
  => WRF                                  2782.447
  ===> Total WRF-GC                       3084.243
 max optd  7.5425170E+37
 max taucldi  0.1162283    
 max taucldw  2.1517834E-04
 Switching is not necessary as we are already
 in the right domain!
 GIGC_Chunk_Run: Running for in-PET grid #           1
 GIGC_Chunk_Run: Received new grid IM, JM, LM =          15           9
          49
 =================================================
 W R F - G C   T I M E R S
    Domain           1 (Units: s)
 =================================================
  => Coupler Component                       4.838
   -- Physics & Parameterization             1.160
   -- Diagnostics Out                        0.000
  => GEOS-Chem Column                      298.078
  ===> Total Chemistry                     302.916
  => WRF                                  2800.631
  ===> Total WRF-GC                       3103.546
 max optd  7.5425170E+37
 max taucldi  0.1123049    
 max taucldw  2.1922930E-04
 Switching is not necessary as we are already
 in the right domain!
 GIGC_Chunk_Run: Running for in-PET grid #           1
 GIGC_Chunk_Run: Received new grid IM, JM, LM =          15           9
          49
 =================================================
 W R F - G C   T I M E R S
    Domain           1 (Units: s)
 =================================================
  => Coupler Component                       4.874
   -- Physics & Parameterization             1.169
   -- Diagnostics Out                        0.000
  => GEOS-Chem Column                      299.161
  ===> Total Chemistry                     304.036
  => WRF                                  2818.753
  ===> Total WRF-GC                       3122.788
 max optd  7.5425170E+37
 max taucldi  0.1127422    
 max taucldw  2.2304666E-04
 Switching is not necessary as we are already
 in the right domain!
 GIGC_Chunk_Run: Running for in-PET grid #           1
 GIGC_Chunk_Run: Received new grid IM, JM, LM =          15           9
          49
 =================================================
 W R F - G C   T I M E R S
    Domain           1 (Units: s)
 =================================================
  => Coupler Component                       4.909
   -- Physics & Parameterization             1.177
   -- Diagnostics Out                        0.000
  => GEOS-Chem Column                      300.241
  ===> Total Chemistry                     305.150
  => WRF                                  2836.933
  ===> Total WRF-GC                       3142.082
 HOURLY EMISSIONS UPDATE TIME    39600.0       0.0
mediation_integrate: med_read_wrf_chem_emissions: Read emissions for time 2018-01-01_11:00:00
 max optd  7.5425170E+37
 max taucldi  0.1092168    
 max taucldw  2.2658642E-04
 Switching is not necessary as we are already
 in the right domain!
 GIGC_Chunk_Run: Running for in-PET grid #           1
 GIGC_Chunk_Run: Received new grid IM, JM, LM =          15           9
          49
 =================================================
 W R F - G C   T I M E R S
    Domain           1 (Units: s)
 =================================================
  => Coupler Component                       4.945
   -- Physics & Parameterization             1.186
   -- Diagnostics Out                        0.000
  => GEOS-Chem Column                      301.333
  ===> Total Chemistry                     306.278
  => WRF                                  2855.103
  ===> Total WRF-GC                       3161.382
 max optd  7.5425170E+37
 max taucldi  0.1139864    
 max taucldw  2.2980393E-04
 Switching is not necessary as we are already
 in the right domain!
 GIGC_Chunk_Run: Running for in-PET grid #           1
 GIGC_Chunk_Run: Received new grid IM, JM, LM =          15           9
          49
 =================================================
 W R F - G C   T I M E R S
    Domain           1 (Units: s)
 =================================================
  => Coupler Component                       4.983
   -- Physics & Parameterization             1.194
   -- Diagnostics Out                        0.000
  => GEOS-Chem Column                      302.412
  ===> Total Chemistry                     307.395
  => WRF                                  2873.197
  ===> Total WRF-GC                       3180.592
 max optd  7.5425170E+37
 max taucldi  0.1177964    
 max taucldw  2.3263149E-04
 Switching is not necessary as we are already
 in the right domain!
 GIGC_Chunk_Run: Running for in-PET grid #           1
 GIGC_Chunk_Run: Received new grid IM, JM, LM =          15           9
          49
 =================================================
 W R F - G C   T I M E R S
    Domain           1 (Units: s)
 =================================================
  => Coupler Component                       5.019
   -- Physics & Parameterization             1.203
   -- Diagnostics Out                        0.000
  => GEOS-Chem Column                      303.491
  ===> Total Chemistry                     308.510
  => WRF                                  2891.405
  ===> Total WRF-GC                       3199.915
 max optd  7.5425170E+37
 max taucldi  0.1160259    
 max taucldw  2.3496299E-04
 Switching is not necessary as we are already
 in the right domain!
 GIGC_Chunk_Run: Running for in-PET grid #           1
 GIGC_Chunk_Run: Received new grid IM, JM, LM =          15           9
          49
 =================================================
 W R F - G C   T I M E R S
    Domain           1 (Units: s)
 =================================================
  => Coupler Component                       5.056
   -- Physics & Parameterization             1.212
   -- Diagnostics Out                        0.000
  => GEOS-Chem Column                      304.581
  ===> Total Chemistry                     309.637
  => WRF                                  2909.670
  ===> Total WRF-GC                       3219.307
 max optd  7.5425170E+37
 max taucldi  0.1172701    
 max taucldw  2.3672987E-04
 Switching is not necessary as we are already
 in the right domain!
 GIGC_Chunk_Run: Running for in-PET grid #           1
 GIGC_Chunk_Run: Received new grid IM, JM, LM =          15           9
          49
 =================================================
 W R F - G C   T I M E R S
    Domain           1 (Units: s)
 =================================================
  => Coupler Component                       5.093
   -- Physics & Parameterization             1.221
   -- Diagnostics Out                        0.000
  => GEOS-Chem Column                      305.665
  ===> Total Chemistry                     310.758
  => WRF                                  2928.058
  ===> Total WRF-GC                       3238.816
 max optd  7.5425170E+37
 max taucldi  0.1177693    
 max taucldw  2.3791908E-04
 Switching is not necessary as we are already
 in the right domain!
 GIGC_Chunk_Run: Running for in-PET grid #           1
 GIGC_Chunk_Run: Received new grid IM, JM, LM =          15           9
          49
 =================================================
 W R F - G C   T I M E R S
    Domain           1 (Units: s)
 =================================================
  => Coupler Component                       5.130
   -- Physics & Parameterization             1.229
   -- Diagnostics Out                        0.000
  => GEOS-Chem Column                      306.755
  ===> Total Chemistry                     311.885
  => WRF                                  2946.432
  ===> Total WRF-GC                       3258.317
 max optd  7.5425170E+37
 max taucldi  0.1235657    
 max taucldw  2.3856480E-04
 Switching is not necessary as we are already
 in the right domain!
 GIGC_Chunk_Run: Running for in-PET grid #           1
 GIGC_Chunk_Run: Received new grid IM, JM, LM =          15           9
          49
 =================================================
 W R F - G C   T I M E R S
    Domain           1 (Units: s)
 =================================================
  => Coupler Component                       5.163
   -- Physics & Parameterization             1.238
   -- Diagnostics Out                        0.000
  => GEOS-Chem Column                      307.831
  ===> Total Chemistry                     312.994
  => WRF                                  2964.941
  ===> Total WRF-GC                       3277.935
 max optd  7.5425170E+37
 max taucldi  0.1235443    
 max taucldw  2.3869122E-04
 Switching is not necessary as we are already
 in the right domain!
 GIGC_Chunk_Run: Running for in-PET grid #           1
 GIGC_Chunk_Run: Received new grid IM, JM, LM =          15           9
          49
 =================================================
 W R F - G C   T I M E R S
    Domain           1 (Units: s)
 =================================================
  => Coupler Component                       5.197
   -- Physics & Parameterization             1.246
   -- Diagnostics Out                        0.000
  => GEOS-Chem Column                      308.896
  ===> Total Chemistry                     314.092
  => WRF                                  2983.506
  ===> Total WRF-GC                       3297.598
 max optd  7.5425170E+37
 max taucldi  0.1247615    
 max taucldw  2.3830881E-04
 Switching is not necessary as we are already
 in the right domain!
 GIGC_Chunk_Run: Running for in-PET grid #           1
 GIGC_Chunk_Run: Received new grid IM, JM, LM =          15           9
          49
 =================================================
 W R F - G C   T I M E R S
    Domain           1 (Units: s)
 =================================================
  => Coupler Component                       5.229
   -- Physics & Parameterization             1.255
   -- Diagnostics Out                        0.000
  => GEOS-Chem Column                      309.965
  ===> Total Chemistry                     315.194
  => WRF                                  3002.171
  ===> Total WRF-GC                       3317.366
 max optd  7.5425170E+37
 max taucldi  0.1220757    
 max taucldw  2.3743922E-04
 Switching is not necessary as we are already
 in the right domain!
 GIGC_Chunk_Run: Running for in-PET grid #           1
 GIGC_Chunk_Run: Received new grid IM, JM, LM =          15           9
          49
 =================================================
 W R F - G C   T I M E R S
    Domain           1 (Units: s)
 =================================================
  => Coupler Component                       5.262
   -- Physics & Parameterization             1.264
   -- Diagnostics Out                        0.000
  => GEOS-Chem Column                      311.025
  ===> Total Chemistry                     316.286
  => WRF                                  3021.071
  ===> Total WRF-GC                       3337.357
 max optd  7.5425170E+37
 max taucldi  0.1141993    
 max taucldw  2.3614567E-04
 Switching is not necessary as we are already
 in the right domain!
 GIGC_Chunk_Run: Running for in-PET grid #           1
 GIGC_Chunk_Run: Received new grid IM, JM, LM =          15           9
          49
 =================================================
 W R F - G C   T I M E R S
    Domain           1 (Units: s)
 =================================================
  => Coupler Component                       5.295
   -- Physics & Parameterization             1.273
   -- Diagnostics Out                        0.000
  => GEOS-Chem Column                      312.096
  ===> Total Chemistry                     317.390
  => WRF                                  3039.888
  ===> Total WRF-GC                       3357.278
 max optd  7.5425170E+37
 max taucldi  0.1228397    
 max taucldw  2.3451359E-04
 Switching is not necessary as we are already
 in the right domain!
 GIGC_Chunk_Run: Running for in-PET grid #           1
 GIGC_Chunk_Run: Received new grid IM, JM, LM =          15           9
          49
 =================================================
 W R F - G C   T I M E R S
    Domain           1 (Units: s)
 =================================================
  => Coupler Component                       5.325
   -- Physics & Parameterization             1.281
   -- Diagnostics Out                        0.000
  => GEOS-Chem Column                      313.176
  ===> Total Chemistry                     318.500
  => WRF                                  3058.616
  ===> Total WRF-GC                       3377.116
d01 2018-01-01_12:00:00 wrf: SUCCESS COMPLETE WRF
