taskid: 199 hostname: ip-172-31-1-17
Quilting with   1 groups of   0 I/O tasks.
 Ntasks in X           64 , ntasks in Y           72
--- WARNING: traj_opt is zero, but num_traj is not zero; setting num_traj to zero.
--- NOTE: sst_update is 0, setting io_form_auxinput4 = 0 and auxinput4_interval = 0 for all domains
--- NOTE: grid_fdda is 0 for domain      1, setting gfdda interval and ending time to 0 for that domain.
--- NOTE: both grid_sfdda and pxlsm_soil_nudge are 0 for domain      1, setting sgfdda interval and ending time to 0 for that domain.
--- NOTE: obs_nudge_opt is 0 for domain      1, setting obs nudging interval and ending time to 0 for that domain.
--- NOTE: bl_pbl_physics /= 4, implies mfshconv must be 0, resetting
Need MYNN PBL for icloud_bl = 1, resetting to 0
*************************************
No physics suite selected.
Physics options will be used directly from the namelist.
*************************************
--- NOTE: RRTMG radiation is in use, setting:  levsiz=59, alevsiz=12, no_src_types=6
--- NOTE: num_soil_layers has been set to      4
WRF V3.9.1.1 MODEL
 *************************************
 Parent domain
 ids,ide,jds,jde            1         950           1         650
 ims,ime,jms,jme           99         127          22          44
 ips,ipe,jps,jpe          106         120          29          37
 *************************************
DYNAMICS OPTION: Eulerian Mass Coordinate
   alloc_space_field: domain            1 ,              203623800  bytes allocated
  med_initialdata_input: calling input_input
Max map factor in domain 1 =  1.40. Scale the dt in the model accordingly.
INPUT LandUse = "USGS"
 LANDUSE TYPE = "USGS" FOUND          33  CATEGORIES           2  SEASONS WATER CATEGORY =           16  SNOW CATEGORY =           24
INITIALIZE THREE Noah LSM RELATED TABLES
*****************************************************************
  __          _______  ______       _____  _____ _    _ _____
  \ \        / /  __ \|  ____|     / ____|/ ____| |  | |  __ \
   \ \  /\  / /| |__) | |__ ______| |  __| |    | |__| | |__) |
    \ \/  \/ / |  _  /|  __|______| | |_ | |    |  __  |  ___/
     \  /\  /  | | \ \| |         | |__| | |____| |  | | |
      \/  \/   |_|  \_\_|          \_____|\_____|_|  |_|_|
*****************************************************************
         WRF-GC MODEL, VERSION 1811.11 - WRF BINDINGS
 For errors, suggestions & feedback email linhaipeng@pku.edu.cn
*****************************************************************
    This is domain            1
 ### GIGC_Stateful_Mod: Root CPU, after READ_INPUT_FILE
  Linoz Data:  O3 climatology :                  z*=10, 12, ..., 58                             2.700E-08 1.083E-05
  Linoz Data:  Temperature climatology :         z*=10, 12, ..., 58                             1.859E+02 2.904E+02
  Linoz Data:  Column O3 above box climalology : z*=10, 12, ..., 58                             7.538E-02 3.770E+02
  Linoz Data:  P-L O3 climatology (mr/s):        z*=10, 12, ..., 58                            -1.590E-10 2.835E-11
  Linoz Data:  d(P-L)/dO3 (1/s) :                z*=10, 12, ..., 58                            -8.386E-04 7.556E-09
  Linoz Data:  d(P-L)/dT (mr/K) :                z*=10, 12, ..., 58                            -5.742E-12 4.615E-14
  Linoz Data:  d(P-L)/d(column O3) (mr/DU) :     z*=10, 12, ..., 58                            -1.921E-12 5.038E-10
 ### GIGC_Stateful_Mod: Root CPU, after LINOZ_READ
 %%%%%%%%% GIGC IN-PET GRID SWITCHING HACKS %%%%%%%%%
     (Not very) Proudly brought to you by hplin      
 Some debug information:
 ID:           1
 IM, JM, LM:          15           9          49  will be set as PAR
 Allocs: CMN T GC F
 RC at entry-point:           0
 %%%%%%%%%%%%%%%%%%%%%%%%%%%%%%%%%%%%%%%%%%%%%%%%%%%%
 No need to switch HcoState for ID           1
 Exit RC:            0
 %%%%%%%%%    FINISHED GIGC_Switch_Dims    %%%%%%%%%
 GIGC_Chunk_Init: Received new grid IM, JM, LM =          15           9
          49
     ### GIGC_INIT_SIMULATION: after Input_Opt% setups
     ### GIGC_INIT_SIMULATION: after GC_Init_All
     ### GIGC_INIT_SIMULATION: after GC_Init_Extra
     ### GIGC_INIT_SIMULATION: after INIT_FJX
 # GIGC_CHUNK_MOD: after SV save, ID =           1
 WRFGC chemics_init: Following information regarding Input_Opt% (for all doms)
 After domain           1
 HPC:  T
 LPRT:  F
 DoConv:  T
 DoDryDep:  T
 DoEmis:  T
 DoChem:  T
 DoTurb:  T
 DoWetDep:  T

 tropopause_init: DONE intialized domain            1

 mediation_integrate: med_read_wrf_chem_emissions: Open file wrfchemi_00z_d01
 HOURLY EMISSIONS UPDATE TIME        0.0       0.0
mediation_integrate: med_read_wrf_chem_emissions: Read emissions for time 2018-01-01_00:00:00
open_aux_u : error opening wrffirechemi_d01_2018-01-01_00:00:00 for reading. 100
open_aux_u : error opening wrfchemi_gocart_bg_d01 for reading. 100
d01 2018-01-01_00:00:00 Input data processed for aux input   8 for domain   1
open_aux_u : error opening wrfchemv_d01 for reading. 100
 Tile Strategy is not specified. Assuming 1D-Y
WRF TILE   1 IS    106 IE    120 JS     29 JE     37
WRF NUMBER OF TILES =   1
 max optd  2.8396199E+23
 max taucldi  0.0000000E+00
 max taucldw  0.0000000E+00
 =================================================
 W R F - G C   T I M E R S
    Domain           1 (Units: s)
 =================================================
  => Coupler Component                       0.028
   -- Physics & Parameterization             0.001
   -- Diagnostics Out                        0.000
  => GEOS-Chem Column                        0.000
  ===> Total Chemistry                       0.028
  => WRF                                     0.000
  ===> Total WRF-GC                          0.028
 max optd  2.8396199E+23
 max taucldi  1.0000007E-14
 max taucldw  1.0000007E-14
 %%%%%%%%% GIGC IN-PET GRID SWITCHING HACKS %%%%%%%%%
     (Not very) Proudly brought to you by hplin      
 Some debug information:
 ID:           1
 IM, JM, LM:          15           9          49  will be set as PAR
 Allocs: CMN T GC T
 RC at entry-point:           0
 %%%%%%%%%%%%%%%%%%%%%%%%%%%%%%%%%%%%%%%%%%%%%%%%%%%%
 No need to switch HcoState for ID           1
 Debug HcoState nSpc, NX, NY, NZ         163          15           9          49
 Exit RC:            0
 %%%%%%%%%    FINISHED GIGC_Switch_Dims    %%%%%%%%%
 GIGC_Chunk_Run: Running for in-PET grid #           1
 GIGC_Chunk_Run: Received new grid IM, JM, LM =          15           9
          49
HEMCO: Opening /fsx/HEMCO/BIOFUEL/v2014-07/biofuel.geos.4x5.nc
HEMCO: Opening /fsx/HEMCO/BROMINE/v2015-02/Bromocarb_Liang2010.nc
HEMCO: Opening /fsx/HEMCO/ACET/v2014-07/ACET_seawater.generic.1x1.nc
HEMCO: Opening /fsx/HEMCO/SOILNOX/v2014-07/DepReservoirDefault.nc
HEMCO: Opening /fsx/HEMCO/SOILNOX/v2014-07/soilNOx.landtype.generic.025x025.1L.nc
HEMCO: Opening /fsx/HEMCO/SOILNOX/v2014-07/soilNOx.climate.generic.05x05.nc
HEMCO: Opening /fsx/HEMCO/DUST_DEAD/v2014-07/dst_tibds.geos.4x5.nc
HEMCO: Opening /fsx/HEMCO/DUST_DEAD/v2014-07/GOCART_src_fn.geos.4x5.nc
HEMCO: Opening /fsx/HEMCO/MEGAN/v2018-05/MEGAN2.1_EF.geos.025x03125.nc
HEMCO: Opening /fsx/HEMCO/MEGAN/v2017-07/CLM4_PFT.geos.025x03125.nc
HEMCO: Opening /fsx/HEMCO/TIMEZONES/v2015-02/timezones_voronoi_1x1.nc
HEMCO: Opening /fsx/HEMCO/STRAT/v2015-01/Bry/GEOSCCM_Bry.200701.day.nc
HEMCO: Opening /fsx/HEMCO/STRAT/v2015-01/Bry/GEOSCCM_Bry.200701.night.nc
HEMCO: Opening /fsx/HEMCO/OMOC/v2018-01/OMOC.DJF.01x01.nc
HEMCO: Opening /fsx/HEMCO/OMOC/v2018-01/OMOC.MAM.01x01.nc
HEMCO: Opening /fsx/HEMCO/OMOC/v2018-01/OMOC.JJA.01x01.nc
HEMCO: Opening /fsx/HEMCO/OMOC/v2018-01/OMOC.SON.01x01.nc
HEMCO: Opening /fsx/HEMCO/AnnualScalar/v2014-07/AnnualScalar.geos.1x1.nc
HEMCO: Opening /fsx/HEMCO/EDGARv42/v2015-02/NO/EDGAR_hourly_NOxScal.nc
HEMCO: Opening /fsx/HEMCO/MASKS/v2018-09/EMEP_mask.geos.1x1.20151222.nc
HEMCO: Opening /fsx/HEMCO/MASKS/v2018-09/Canada_mask.geos.1x1.nc
HEMCO: Opening /fsx/HEMCO/MASKS/v2018-09/SE_Asia_mask.generic.1x1.nc
HEMCO: Opening /fsx/HEMCO/MASKS/v2018-09/MIX_Asia_mask.generic.025x025.nc
HEMCO: Opening /fsx/HEMCO/MASKS/v2018-09/CONUS_Mask.01x01.nc
HEMCO: Opening /fsx/HEMCO/MASKS/v2018-09/AF_LANDMASK.geos.05x0666.global.nc
HEMCO: Opening /fsx/HEMCO/MASKS/v2018-09/China_mask.generic.1x1.nc
HEMCO: Opening /fsx/HEMCO/MASKS/v2018-09/India_mask.generic.1x1.nc
HEMCO: Opening /fsx/HEMCO/AnnualScalar/v2014-07/AnnualScalar.geos.1x1.nc
HEMCO: Opening /fsx/HEMCO/NH3/v2014-07/NH3_geos.4x5.nc
HEMCO: Opening /fsx/HEMCO/NH3/v2018-04/NH3_Arctic_seabirds.nc
HEMCO: Opening /fsx/HEMCO/CEDS/v2018-08/2014/NO-em-anthro_CMIP_CEDS_2014.nc
HEMCO: Opening /fsx/HEMCO/CEDS/v2018-08/2014/CO-em-anthro_CMIP_CEDS_2014.nc
HEMCO: Opening /fsx/HEMCO/CEDS/v2018-08/2014/SO2-em-anthro_CMIP_CEDS_2014.nc
HEMCO: Opening /fsx/HEMCO/CEDS/v2018-08/2014/NH3-em-anthro_CMIP_CEDS_2014.nc
HEMCO: Opening /fsx/HEMCO/CEDS/v2018-08/2014/BC-em-anthro_CMIP_CEDS_2014.nc
HEMCO: Opening /fsx/HEMCO/CEDS/v2018-08/2014/OC-em-anthro_CMIP_CEDS_2014.nc
HEMCO: Opening /fsx/HEMCO/CEDS/v2018-08/2014/EOH-em-anthro_CMIP_CEDS_2014.nc
HEMCO: Opening /fsx/HEMCO/CEDS/v2018-08/2014/C2H6-em-anthro_CMIP_CEDS_2014.nc
HEMCO: Opening /fsx/HEMCO/CEDS/v2018-08/2014/C3H8-em-anthro_CMIP_CEDS_2014.nc
HEMCO: Opening /fsx/HEMCO/CEDS/v2018-08/2014/ALK4_butanes-em-anthro_CMIP_CEDS_2014.nc
HEMCO: Opening /fsx/HEMCO/CEDS/v2018-08/2014/ALK4_pentanes-em-anthro_CMIP_CEDS_2014.nc
HEMCO: Opening /fsx/HEMCO/CEDS/v2018-08/2014/ALK4_hexanes-em-anthro_CMIP_CEDS_2014.nc
HEMCO: Opening /fsx/HEMCO/CEDS/v2018-08/2014/PRPE-em-anthro_CMIP_CEDS_2014.nc
HEMCO: Opening /fsx/HEMCO/CEDS/v2018-08/2014/BENZ-em-anthro_CMIP_CEDS_2014.nc
HEMCO: Opening /fsx/HEMCO/CEDS/v2018-08/2014/TOLU-em-anthro_CMIP_CEDS_2014.nc
HEMCO: Opening /fsx/HEMCO/CEDS/v2018-08/2014/XYLE-em-anthro_CMIP_CEDS_2014.nc
HEMCO: Opening /fsx/HEMCO/CEDS/v2018-08/2014/CH2O-em-anthro_CMIP_CEDS_2014.nc
HEMCO: Opening /fsx/HEMCO/CEDS/v2018-08/2014/ALD2-em-anthro_CMIP_CEDS_2014.nc
HEMCO: Opening /fsx/HEMCO/CEDS/v2018-08/2014/MEK-em-anthro_CMIP_CEDS_2014.nc
HEMCO: Opening /fsx/HEMCO/CEDS/v2018-08/2014/HCOOH-em-anthro_CMIP_CEDS_2014.nc
HEMCO: Opening /fsx/HEMCO/C2H6_2010/v2017-05/C2H6_global_anth_biof.201001.nc
HEMCO: Opening /fsx/HEMCO/NEI2011/v2017-02-MM/01/NEI11_0.1x0.1_201101_monmean.nc
HEMCO: Opening /fsx/HEMCO/NEI2011/v2017-02-MM/01/NEI11_0.1x0.1_201101_monmean_egu.nc
HEMCO: Opening /fsx/HEMCO/NEI2011/v2017-02-MM/01/NEI11_0.1x0.1_201101_monmean_egupk.nc
HEMCO: Opening /fsx/HEMCO/NEI2011/v2017-02-MM/01/NEI11_0.1x0.1_201101_monmean_oilgas.nc
HEMCO: Opening /fsx/HEMCO/NEI2011/v2017-02-MM/01/NEI11_0.1x0.1_201101_monmean_othpt.nc
HEMCO: Opening /fsx/HEMCO/NEI2011/v2017-02-MM/01/NEI11_0.1x0.1_201101_monmean_ptnonipm.nc
HEMCO: Opening /fsx/HEMCO/IODINE/v2017-09/CH3I_monthly_emissions_Ordonez_2012_COARDS.nc
HEMCO: Opening /fsx/HEMCO/IODINE/v2017-09/CH2I2_monthly_emissions_Ordonez_2012_COARDS.nc
HEMCO: Opening /fsx/HEMCO/IODINE/v2017-09/CH2ICl_monthly_emissions_Ordonez_2012_COARDS.nc
HEMCO: Opening /fsx/HEMCO/IODINE/v2017-09/CH2IBr_monthly_emissions_Ordonez_2012_COARDS.nc
HEMCO: Opening /fsx/HEMCO/CEDS/v2018-08/2014/CO-em-anthro_CMIP_CEDS_2014.nc
HEMCO: Opening /fsx/HEMCO/CEDS/v2018-08/2014/SO2-em-anthro_CMIP_CEDS_2014.nc
HEMCO: Opening /fsx/HEMCO/CEDS/v2018-08/2014/NH3-em-anthro_CMIP_CEDS_2014.nc
HEMCO: Opening /fsx/HEMCO/CEDS/v2018-08/2014/BC-em-anthro_CMIP_CEDS_2014.nc
HEMCO: Opening /fsx/HEMCO/CEDS/v2018-08/2014/OC-em-anthro_CMIP_CEDS_2014.nc
HEMCO: Opening /fsx/HEMCO/CEDS/v2018-08/2014/EOH-em-anthro_CMIP_CEDS_2014.nc
HEMCO: Opening /fsx/HEMCO/CEDS/v2018-08/2014/C2H6-em-anthro_CMIP_CEDS_2014.nc
HEMCO: Opening /fsx/HEMCO/CEDS/v2018-08/2014/C3H8-em-anthro_CMIP_CEDS_2014.nc
HEMCO: Opening /fsx/HEMCO/CEDS/v2018-08/2014/ALK4_butanes-em-anthro_CMIP_CEDS_2014.nc
HEMCO: Opening /fsx/HEMCO/CEDS/v2018-08/2014/ALK4_pentanes-em-anthro_CMIP_CEDS_2014.nc
HEMCO: Opening /fsx/HEMCO/CEDS/v2018-08/2014/ALK4_hexanes-em-anthro_CMIP_CEDS_2014.nc
HEMCO: Opening /fsx/HEMCO/CEDS/v2018-08/2014/PRPE-em-anthro_CMIP_CEDS_2014.nc
HEMCO: Opening /fsx/HEMCO/CEDS/v2018-08/2014/BENZ-em-anthro_CMIP_CEDS_2014.nc
HEMCO: Opening /fsx/HEMCO/CEDS/v2018-08/2014/TOLU-em-anthro_CMIP_CEDS_2014.nc
HEMCO: Opening /fsx/HEMCO/CEDS/v2018-08/2014/XYLE-em-anthro_CMIP_CEDS_2014.nc
HEMCO: Opening /fsx/HEMCO/CEDS/v2018-08/2014/CH2O-em-anthro_CMIP_CEDS_2014.nc
HEMCO: Opening /fsx/HEMCO/CEDS/v2018-08/2014/ALD2-em-anthro_CMIP_CEDS_2014.nc
HEMCO: Opening /fsx/HEMCO/CEDS/v2018-08/2014/MEK-em-anthro_CMIP_CEDS_2014.nc
HEMCO: Opening /fsx/HEMCO/CEDS/v2018-08/2014/HCOOH-em-anthro_CMIP_CEDS_2014.nc
HEMCO: Opening /fsx/HEMCO/CEDS/v2018-08/2014/NO-em-anthro_CMIP_CEDS_2014.nc
HEMCO: Opening /fsx/HEMCO/AEIC/v2015-01/AEIC.47L.gen.1x1.nc
HEMCO: Opening /fsx/HEMCO/ALD2/v2017-03/resp.geos.2x25.nc
HEMCO: Opening /fsx/HEMCO/DMS/v2015-07/DMS_lana.geos.1x1.nc
HEMCO: Opening /fsx/HEMCO/ALD2/v2017-03/ALD2_seawater.geos.2x25.nc
HEMCO: Opening /fsx/HEMCO/DUST_DEAD/v2014-07/dst_tvbds.geos.4x5.nc
HEMCO: Opening /fsx/HEMCO/DUST_DEAD/v2018-04/PM25FINE_ECLIPSE_2015.geos.2x25.nc
HEMCO: Opening /fsx/HEMCO/SOA/v2014-07/NVOC.geos.1x1.nc
HEMCO: Opening /fsx/HEMCO/GFED4/v2015-10/2016/GFED4_gen.025x025.201601.nc
HEMCO: Opening /fsx/HEMCO/UVALBEDO/v2015-03/uvalbedo.geos.2x25.nc
HEMCO: Opening /fsx/HEMCO/GMI/v2015-02/gmi.clim.ACET.geos5.2x25.nc
HEMCO: Opening /fsx/HEMCO/GMI/v2015-02/gmi.clim.ACTA.geos5.2x25.nc
HEMCO: Opening /fsx/HEMCO/GMI/v2015-02/gmi.clim.ALD2.geos5.2x25.nc
HEMCO: Opening /fsx/HEMCO/GMI/v2015-02/gmi.clim.ALK4.geos5.2x25.nc
HEMCO: Opening /fsx/HEMCO/GMI/v2015-02/gmi.clim.C2H6.geos5.2x25.nc
HEMCO: Opening /fsx/HEMCO/GMI/v2015-02/gmi.clim.C3H8.geos5.2x25.nc
HEMCO: Opening /fsx/HEMCO/GMI/v2015-02/gmi.clim.CCl4.geos5.2x25.nc
HEMCO: Opening /fsx/HEMCO/GMI/v2015-02/gmi.clim.CF2Cl2.geos5.2x25.nc
HEMCO: Opening /fsx/HEMCO/GMI/v2015-02/gmi.clim.CF2ClBr.geos5.2x25.nc
HEMCO: Opening /fsx/HEMCO/GMI/v2015-02/gmi.clim.CFC113.geos5.2x25.nc
HEMCO: Opening /fsx/HEMCO/GMI/v2015-02/gmi.clim.CFC114.geos5.2x25.nc
HEMCO: Opening /fsx/HEMCO/GMI/v2015-02/gmi.clim.CFC115.geos5.2x25.nc
HEMCO: Opening /fsx/HEMCO/GMI/v2015-02/gmi.clim.CFCl3.geos5.2x25.nc
HEMCO: Opening /fsx/HEMCO/GMI/v2015-02/gmi.clim.CH2O.geos5.2x25.nc
HEMCO: Opening /fsx/HEMCO/GMI/v2015-02/gmi.clim.CH3CCl3.geos5.2x25.nc
HEMCO: Opening /fsx/HEMCO/GMI/v2015-02/gmi.clim.CH3Cl.geos5.2x25.nc
HEMCO: Opening /fsx/HEMCO/GMI/v2015-02/gmi.clim.CH4.geos5.2x25.nc
HEMCO: Opening /fsx/HEMCO/GMI/v2015-02/gmi.clim.CO.geos5.2x25.nc
HEMCO: Opening /fsx/HEMCO/GMI/v2015-02/gmi.clim.Cl.geos5.2x25.nc
HEMCO: Opening /fsx/HEMCO/GMI/v2015-02/gmi.clim.Cl2.geos5.2x25.nc
HEMCO: Opening /fsx/HEMCO/GMI/v2015-02/gmi.clim.Cl2O2.geos5.2x25.nc
HEMCO: Opening /fsx/HEMCO/GMI/v2015-02/gmi.clim.ClO.geos5.2x25.nc
HEMCO: Opening /fsx/HEMCO/GMI/v2015-02/gmi.clim.EOH.geos5.2x25.nc
HEMCO: Opening /fsx/HEMCO/GMI/v2015-02/gmi.clim.GLYC.geos5.2x25.nc
HEMCO: Opening /fsx/HEMCO/GMI/v2015-02/gmi.clim.GLYX.geos5.2x25.nc
HEMCO: Opening /fsx/HEMCO/GMI/v2015-02/gmi.clim.H2402.geos5.2x25.nc
HEMCO: Opening /fsx/HEMCO/GMI/v2015-02/gmi.clim.H2O.geos5.2x25.nc
HEMCO: Opening /fsx/HEMCO/GMI/v2015-02/gmi.clim.H2O2.geos5.2x25.nc
HEMCO: Opening /fsx/HEMCO/GMI/v2015-02/gmi.clim.HAC.geos5.2x25.nc
HEMCO: Opening /fsx/HEMCO/GMI/v2015-02/gmi.clim.HCFC141b.geos5.2x25.nc
HEMCO: Opening /fsx/HEMCO/GMI/v2015-02/gmi.clim.HCFC142b.geos5.2x25.nc
HEMCO: Opening /fsx/HEMCO/GMI/v2015-02/gmi.clim.HCFC22.geos5.2x25.nc
HEMCO: Opening /fsx/HEMCO/GMI/v2015-02/gmi.clim.HCOOH.geos5.2x25.20170108.nc
HEMCO: Opening /fsx/HEMCO/GMI/v2015-02/gmi.clim.HCl.geos5.2x25.nc
HEMCO: Opening /fsx/HEMCO/GMI/v2015-02/gmi.clim.HNO2.geos5.2x25.nc
HEMCO: Opening /fsx/HEMCO/GMI/v2015-02/gmi.clim.HNO3.geos5.2x25.nc
HEMCO: Opening /fsx/HEMCO/GMI/v2015-02/gmi.clim.HNO4.geos5.2x25.nc
HEMCO: Opening /fsx/HEMCO/GMI/v2015-02/gmi.clim.HOCl.geos5.2x25.nc
HEMCO: Opening /fsx/HEMCO/GMI/v2015-02/gmi.clim.ISN1.geos5.2x25.nc
HEMCO: Opening /fsx/HEMCO/GMI/v2015-02/gmi.clim.ISOP.geos5.2x25.nc
HEMCO: Opening /fsx/HEMCO/GMI/v2015-02/gmi.clim.MACR.geos5.2x25.nc
HEMCO: Opening /fsx/HEMCO/GMI/v2015-02/gmi.clim.MAP.geos5.2x25.nc
HEMCO: Opening /fsx/HEMCO/GMI/v2015-02/gmi.clim.MEK.geos5.2x25.nc
HEMCO: Opening /fsx/HEMCO/GMI/v2015-02/gmi.clim.MGLY.geos5.2x25.nc
HEMCO: Opening /fsx/HEMCO/GMI/v2015-02/gmi.clim.MP.geos5.2x25.nc
HEMCO: Opening /fsx/HEMCO/GMI/v2015-02/gmi.clim.MVK.geos5.2x25.nc
HEMCO: Opening /fsx/HEMCO/GMI/v2015-02/gmi.clim.N2O.geos5.2x25.nc
HEMCO: Opening /fsx/HEMCO/GMI/v2015-02/gmi.clim.N2O5.geos5.2x25.nc
HEMCO: Opening /fsx/HEMCO/GMI/v2015-02/gmi.clim.NO.geos5.2x25.nc
HEMCO: Opening /fsx/HEMCO/GMI/v2015-02/gmi.clim.NO2.geos5.2x25.nc
HEMCO: Opening /fsx/HEMCO/GMI/v2015-02/gmi.clim.NO3.geos5.2x25.nc
HEMCO: Opening /fsx/HEMCO/GMI/v2015-02/gmi.clim.O3.geos5.2x25.nc
HEMCO: Opening /fsx/HEMCO/GMI/v2015-02/gmi.clim.OClO.geos5.2x25.nc
HEMCO: Opening /fsx/HEMCO/GMI/v2015-02/gmi.clim.PAN.geos5.2x25.nc
HEMCO: Opening /fsx/HEMCO/GMI/v2015-02/gmi.clim.NPMN.geos5.2x25.nc
HEMCO: Opening /fsx/HEMCO/GMI/v2015-02/gmi.clim.IPMN.geos5.2x25.nc
HEMCO: Opening /fsx/HEMCO/GMI/v2015-02/gmi.clim.PPN.geos5.2x25.nc
HEMCO: Opening /fsx/HEMCO/GMI/v2015-02/gmi.clim.PRPE.geos5.2x25.nc
HEMCO: Opening /fsx/HEMCO/GMI/v2015-02/gmi.clim.R4N2.geos5.2x25.nc
HEMCO: Opening /fsx/HEMCO/GMI/v2015-02/gmi.clim.RCHO.geos5.2x25.nc
HEMCO: Opening /fsx/HEMCO/GMI/v2015-02/gmi.clim.RIPA.geos5.2x25.nc
HEMCO: Opening /fsx/HEMCO/GMI/v2015-02/gmi.clim.RIPB.geos5.2x25.nc
HEMCO: Opening /fsx/HEMCO/GMI/v2015-02/gmi.clim.RIPD.geos5.2x25.nc
HEMCO: Opening /fsx/HEMCO/GMI/v2015-02/gmi.clim.OH.geos5.2x25.nc
HEMCO: Opening /fsx/HEMCO/NOAA_GMD/v2018-01/monthly.gridded.surface.methane.1979-2020.1x1.nc
HEMCO: Opening /fsx/HEMCO/GEIA/v2014-07/GEIA_monthscal.generic.1x1.nc
HEMCO: Opening /fsx/HEMCO/EMEP/v2015-03/EMEP.Seasonal.geos.1x1.nc
HEMCO: Opening /fsx/HEMCO/BROMINE/v2015-02/BromoCarb_Season.nc
HEMCO: Opening /fsx/HEMCO/EDGARv43/v2016-11/EDGAR_v43.Seasonal.1x1.nc
HEMCO: Opening /fsx/HEMCO/NEI2005/v2014-09/scaling/NEI99.dow.geos.1x1.nc
HEMCO: Opening /fsx/HEMCO/VOLCANO/v2015-02/2009/volc_so2_gen.1x1.47L.200901.nc
HEMCO: Opening /fsx/HEMCO/SOILNOX/v2014-07/soilNOx.fert_res.generic.05x05.nc
 vdinti: pbl height will be limited to bottom           25  model levels. top is
     431.250100000000       hpa
 =================================================
 W R F - G C   T I M E R S
    Domain           1 (Units: s)
 =================================================
  => Coupler Component                       0.055
   -- Physics & Parameterization             0.010
   -- Diagnostics Out                        0.000
  => GEOS-Chem Column                       64.979
  ===> Total Chemistry                      65.034
  => WRF                                    17.298
  ===> Total WRF-GC                         82.332
 max optd  1.9364301E+31
 max taucldi  3.7897064E-11
 max taucldw  1.0892551E-08
 Switching is not necessary as we are already
 in the right domain!
 GIGC_Chunk_Run: Running for in-PET grid #           1
 GIGC_Chunk_Run: Received new grid IM, JM, LM =          15           9
          49
 =================================================
 W R F - G C   T I M E R S
    Domain           1 (Units: s)
 =================================================
  => Coupler Component                       0.086
   -- Physics & Parameterization             0.019
   -- Diagnostics Out                        0.000
  => GEOS-Chem Column                       68.302
  ===> Total Chemistry                      68.388
  => WRF                                   125.918
  ===> Total WRF-GC                        194.306
 max optd  1.9364301E+31
 max taucldi  8.1782275E-11
 max taucldw  1.4540786E-08
 Switching is not necessary as we are already
 in the right domain!
 GIGC_Chunk_Run: Running for in-PET grid #           1
 GIGC_Chunk_Run: Received new grid IM, JM, LM =          15           9
          49
 =================================================
 W R F - G C   T I M E R S
    Domain           1 (Units: s)
 =================================================
  => Coupler Component                       0.124
   -- Physics & Parameterization             0.029
   -- Diagnostics Out                        0.000
  => GEOS-Chem Column                       69.876
  ===> Total Chemistry                      70.000
  => WRF                                   144.457
  ===> Total WRF-GC                        214.456
 max optd  1.9364301E+31
 max taucldi  0.1106425    
 max taucldw  1.8024560E-08
 Switching is not necessary as we are already
 in the right domain!
 GIGC_Chunk_Run: Running for in-PET grid #           1
 GIGC_Chunk_Run: Received new grid IM, JM, LM =          15           9
          49
 =================================================
 W R F - G C   T I M E R S
    Domain           1 (Units: s)
 =================================================
  => Coupler Component                       0.158
   -- Physics & Parameterization             0.038
   -- Diagnostics Out                        0.000
  => GEOS-Chem Column                       71.241
  ===> Total Chemistry                      71.400
  => WRF                                   162.950
  ===> Total WRF-GC                        234.349
 max optd  1.9364301E+31
 max taucldi  0.1884589    
 max taucldw  2.1542883E-08
 Switching is not necessary as we are already
 in the right domain!
 GIGC_Chunk_Run: Running for in-PET grid #           1
 GIGC_Chunk_Run: Received new grid IM, JM, LM =          15           9
          49
 =================================================
 W R F - G C   T I M E R S
    Domain           1 (Units: s)
 =================================================
  => Coupler Component                       0.200
   -- Physics & Parameterization             0.047
   -- Diagnostics Out                        0.000
  => GEOS-Chem Column                       72.544
  ===> Total Chemistry                      72.744
  => WRF                                   181.220
  ===> Total WRF-GC                        253.964
 max optd  1.9364301E+31
 max taucldi  0.2604667    
 max taucldw  2.4870820E-08
 Switching is not necessary as we are already
 in the right domain!
 GIGC_Chunk_Run: Running for in-PET grid #           1
 GIGC_Chunk_Run: Received new grid IM, JM, LM =          15           9
          49
 =================================================
 W R F - G C   T I M E R S
    Domain           1 (Units: s)
 =================================================
  => Coupler Component                       0.239
   -- Physics & Parameterization             0.056
   -- Diagnostics Out                        0.000
  => GEOS-Chem Column                       73.755
  ===> Total Chemistry                      73.994
  => WRF                                   199.417
  ===> Total WRF-GC                        273.411
 max optd  1.9364301E+31
 max taucldi  0.3203469    
 max taucldw  2.8142521E-08
 Switching is not necessary as we are already
 in the right domain!
 GIGC_Chunk_Run: Running for in-PET grid #           1
 GIGC_Chunk_Run: Received new grid IM, JM, LM =          15           9
          49
 =================================================
 W R F - G C   T I M E R S
    Domain           1 (Units: s)
 =================================================
  => Coupler Component                       0.268
   -- Physics & Parameterization             0.066
   -- Diagnostics Out                        0.000
  => GEOS-Chem Column                       75.156
  ===> Total Chemistry                      75.424
  => WRF                                   217.703
  ===> Total WRF-GC                        293.126
 max optd  1.9364301E+31
 max taucldi  0.3740216    
 max taucldw  3.1421195E-08
 Switching is not necessary as we are already
 in the right domain!
 GIGC_Chunk_Run: Running for in-PET grid #           1
 GIGC_Chunk_Run: Received new grid IM, JM, LM =          15           9
          49
 =================================================
 W R F - G C   T I M E R S
    Domain           1 (Units: s)
 =================================================
  => Coupler Component                       0.311
   -- Physics & Parameterization             0.076
   -- Diagnostics Out                        0.000
  => GEOS-Chem Column                       76.396
  ===> Total Chemistry                      76.707
  => WRF                                   235.737
  ===> Total WRF-GC                        312.444
 max optd  1.9364301E+31
 max taucldi  0.4255576    
 max taucldw  3.4618633E-08
 Switching is not necessary as we are already
 in the right domain!
 GIGC_Chunk_Run: Running for in-PET grid #           1
 GIGC_Chunk_Run: Received new grid IM, JM, LM =          15           9
          49
 =================================================
 W R F - G C   T I M E R S
    Domain           1 (Units: s)
 =================================================
  => Coupler Component                       0.345
   -- Physics & Parameterization             0.085
   -- Diagnostics Out                        0.000
  => GEOS-Chem Column                       77.628
  ===> Total Chemistry                      77.972
  => WRF                                   253.934
  ===> Total WRF-GC                        331.906
 max optd  1.9364301E+31
 max taucldi  0.4692649    
 max taucldw  3.7679019E-08
 Switching is not necessary as we are already
 in the right domain!
 GIGC_Chunk_Run: Running for in-PET grid #           1
 GIGC_Chunk_Run: Received new grid IM, JM, LM =          15           9
          49
 =================================================
 W R F - G C   T I M E R S
    Domain           1 (Units: s)
 =================================================
  => Coupler Component                       0.379
   -- Physics & Parameterization             0.094
   -- Diagnostics Out                        0.000
  => GEOS-Chem Column                       78.864
  ===> Total Chemistry                      79.243
  => WRF                                   272.180
  ===> Total WRF-GC                        351.422
 max optd  1.9364301E+31
 max taucldi  0.5020094    
 max taucldw  3.9534548E-08
 Switching is not necessary as we are already
 in the right domain!
 GIGC_Chunk_Run: Running for in-PET grid #           1
 GIGC_Chunk_Run: Received new grid IM, JM, LM =          15           9
          49
 =================================================
 W R F - G C   T I M E R S
    Domain           1 (Units: s)
 =================================================
  => Coupler Component                       0.411
   -- Physics & Parameterization             0.103
   -- Diagnostics Out                        0.000
  => GEOS-Chem Column                       80.084
  ===> Total Chemistry                      80.495
  => WRF                                   290.359
  ===> Total WRF-GC                        370.855
 max optd  1.9364301E+31
 max taucldi  0.5377091    
 max taucldw  4.2488203E-08
 Switching is not necessary as we are already
 in the right domain!
 GIGC_Chunk_Run: Running for in-PET grid #           1
 GIGC_Chunk_Run: Received new grid IM, JM, LM =          15           9
          49
 =================================================
 W R F - G C   T I M E R S
    Domain           1 (Units: s)
 =================================================
  => Coupler Component                       0.443
   -- Physics & Parameterization             0.112
   -- Diagnostics Out                        0.000
  => GEOS-Chem Column                       81.305
  ===> Total Chemistry                      81.748
  => WRF                                   308.438
  ===> Total WRF-GC                        390.186
 HOURLY EMISSIONS UPDATE TIME     3600.0       0.0
mediation_integrate: med_read_wrf_chem_emissions: Read emissions for time 2018-01-01_01:00:00
 max optd  1.9364301E+31
 max taucldi  0.5718978    
 max taucldw  4.4839481E-08
 Switching is not necessary as we are already
 in the right domain!
 GIGC_Chunk_Run: Running for in-PET grid #           1
 GIGC_Chunk_Run: Received new grid IM, JM, LM =          15           9
          49
 =================================================
 W R F - G C   T I M E R S
    Domain           1 (Units: s)
 =================================================
  => Coupler Component                       0.478
   -- Physics & Parameterization             0.121
   -- Diagnostics Out                        0.000
  => GEOS-Chem Column                       82.505
  ===> Total Chemistry                      82.982
  => WRF                                   326.606
  ===> Total WRF-GC                        409.588
 max optd  1.9364301E+31
 max taucldi  0.6084267    
 max taucldw  4.4141167E-08
 Switching is not necessary as we are already
 in the right domain!
 GIGC_Chunk_Run: Running for in-PET grid #           1
 GIGC_Chunk_Run: Received new grid IM, JM, LM =          15           9
          49
 =================================================
 W R F - G C   T I M E R S
    Domain           1 (Units: s)
 =================================================
  => Coupler Component                       0.510
   -- Physics & Parameterization             0.130
   -- Diagnostics Out                        0.000
  => GEOS-Chem Column                       83.709
  ===> Total Chemistry                      84.219
  => WRF                                   344.770
  ===> Total WRF-GC                        428.990
 max optd  1.9364301E+31
 max taucldi  0.6423769    
 max taucldw  4.4130207E-08
 Switching is not necessary as we are already
 in the right domain!
 GIGC_Chunk_Run: Running for in-PET grid #           1
 GIGC_Chunk_Run: Received new grid IM, JM, LM =          15           9
          49
 =================================================
 W R F - G C   T I M E R S
    Domain           1 (Units: s)
 =================================================
  => Coupler Component                       0.543
   -- Physics & Parameterization             0.139
   -- Diagnostics Out                        0.000
  => GEOS-Chem Column                       84.904
  ===> Total Chemistry                      85.447
  => WRF                                   362.808
  ===> Total WRF-GC                        448.255
 max optd  1.9364301E+31
 max taucldi  0.6598836    
 max taucldw  4.4486061E-08
 Switching is not necessary as we are already
 in the right domain!
 GIGC_Chunk_Run: Running for in-PET grid #           1
 GIGC_Chunk_Run: Received new grid IM, JM, LM =          15           9
          49
 =================================================
 W R F - G C   T I M E R S
    Domain           1 (Units: s)
 =================================================
  => Coupler Component                       0.576
   -- Physics & Parameterization             0.148
   -- Diagnostics Out                        0.000
  => GEOS-Chem Column                       86.087
  ===> Total Chemistry                      86.664
  => WRF                                   380.949
  ===> Total WRF-GC                        467.613
 max optd  1.9364301E+31
 max taucldi  0.6843839    
 max taucldw  4.5325145E-08
 Switching is not necessary as we are already
 in the right domain!
 GIGC_Chunk_Run: Running for in-PET grid #           1
 GIGC_Chunk_Run: Received new grid IM, JM, LM =          15           9
          49
 =================================================
 W R F - G C   T I M E R S
    Domain           1 (Units: s)
 =================================================
  => Coupler Component                       0.610
   -- Physics & Parameterization             0.157
   -- Diagnostics Out                        0.000
  => GEOS-Chem Column                       87.267
  ===> Total Chemistry                      87.877
  => WRF                                   399.055
  ===> Total WRF-GC                        486.932
 max optd  1.9364301E+31
 max taucldi  0.7166180    
 max taucldw  4.5548092E-08
 Switching is not necessary as we are already
 in the right domain!
 GIGC_Chunk_Run: Running for in-PET grid #           1
 GIGC_Chunk_Run: Received new grid IM, JM, LM =          15           9
          49
 =================================================
 W R F - G C   T I M E R S
    Domain           1 (Units: s)
 =================================================
  => Coupler Component                       0.642
   -- Physics & Parameterization             0.166
   -- Diagnostics Out                        0.000
  => GEOS-Chem Column                       88.443
  ===> Total Chemistry                      89.086
  => WRF                                   417.120
  ===> Total WRF-GC                        506.206
 max optd  1.9364301E+31
 max taucldi  0.7416163    
 max taucldw  4.6273875E-08
 Switching is not necessary as we are already
 in the right domain!
 GIGC_Chunk_Run: Running for in-PET grid #           1
 GIGC_Chunk_Run: Received new grid IM, JM, LM =          15           9
          49
 =================================================
 W R F - G C   T I M E R S
    Domain           1 (Units: s)
 =================================================
  => Coupler Component                       0.674
   -- Physics & Parameterization             0.175
   -- Diagnostics Out                        0.000
  => GEOS-Chem Column                       89.626
  ===> Total Chemistry                      90.300
  => WRF                                   435.259
  ===> Total WRF-GC                        525.559
 max optd  1.9364301E+31
 max taucldi  0.7654848    
 max taucldw  4.8001620E-08
 Switching is not necessary as we are already
 in the right domain!
 GIGC_Chunk_Run: Running for in-PET grid #           1
 GIGC_Chunk_Run: Received new grid IM, JM, LM =          15           9
          49
 =================================================
 W R F - G C   T I M E R S
    Domain           1 (Units: s)
 =================================================
  => Coupler Component                       0.707
   -- Physics & Parameterization             0.184
   -- Diagnostics Out                        0.000
  => GEOS-Chem Column                       90.689
  ===> Total Chemistry                      91.396
  => WRF                                   453.498
  ===> Total WRF-GC                        544.893
 max optd  1.9364301E+31
 max taucldi  0.7826943    
 max taucldw  4.9011810E-08
 Switching is not necessary as we are already
 in the right domain!
 GIGC_Chunk_Run: Running for in-PET grid #           1
 GIGC_Chunk_Run: Received new grid IM, JM, LM =          15           9
          49
 =================================================
 W R F - G C   T I M E R S
    Domain           1 (Units: s)
 =================================================
  => Coupler Component                       0.752
   -- Physics & Parameterization             0.193
   -- Diagnostics Out                        0.000
  => GEOS-Chem Column                       91.720
  ===> Total Chemistry                      92.472
  => WRF                                   471.587
  ===> Total WRF-GC                        564.059
 max optd  1.9364301E+31
 max taucldi  0.7978134    
 max taucldw  5.0519265E-08
 Switching is not necessary as we are already
 in the right domain!
 GIGC_Chunk_Run: Running for in-PET grid #           1
 GIGC_Chunk_Run: Received new grid IM, JM, LM =          15           9
          49
 =================================================
 W R F - G C   T I M E R S
    Domain           1 (Units: s)
 =================================================
  => Coupler Component                       0.798
   -- Physics & Parameterization             0.202
   -- Diagnostics Out                        0.000
  => GEOS-Chem Column                       92.757
  ===> Total Chemistry                      93.555
  => WRF                                   489.774
  ===> Total WRF-GC                        583.330
 max optd  1.9364301E+31
 max taucldi  0.8297074    
 max taucldw  5.1790661E-08
 Switching is not necessary as we are already
 in the right domain!
 GIGC_Chunk_Run: Running for in-PET grid #           1
 GIGC_Chunk_Run: Received new grid IM, JM, LM =          15           9
          49
 =================================================
 W R F - G C   T I M E R S
    Domain           1 (Units: s)
 =================================================
  => Coupler Component                       0.834
   -- Physics & Parameterization             0.211
   -- Diagnostics Out                        0.000
  => GEOS-Chem Column                       93.821
  ===> Total Chemistry                      94.655
  => WRF                                   508.088
  ===> Total WRF-GC                        602.743
 max optd  1.9364301E+31
 max taucldi  0.8587177    
 max taucldw  5.4001902E-08
 Switching is not necessary as we are already
 in the right domain!
 GIGC_Chunk_Run: Running for in-PET grid #           1
 GIGC_Chunk_Run: Received new grid IM, JM, LM =          15           9
          49
 =================================================
 W R F - G C   T I M E R S
    Domain           1 (Units: s)
 =================================================
  => Coupler Component                       0.871
   -- Physics & Parameterization             0.220
   -- Diagnostics Out                        0.000
  => GEOS-Chem Column                       94.883
  ===> Total Chemistry                      95.754
  => WRF                                   526.263
  ===> Total WRF-GC                        622.016
 HOURLY EMISSIONS UPDATE TIME     7200.0       0.0
mediation_integrate: med_read_wrf_chem_emissions: Read emissions for time 2018-01-01_02:00:00
 max optd  1.9364301E+31
 max taucldi  0.8881584    
 max taucldw  5.5874210E-08
 Switching is not necessary as we are already
 in the right domain!
 GIGC_Chunk_Run: Running for in-PET grid #           1
 GIGC_Chunk_Run: Received new grid IM, JM, LM =          15           9
          49
 =================================================
 W R F - G C   T I M E R S
    Domain           1 (Units: s)
 =================================================
  => Coupler Component                       0.908
   -- Physics & Parameterization             0.229
   -- Diagnostics Out                        0.000
  => GEOS-Chem Column                       95.959
  ===> Total Chemistry                      96.866
  => WRF                                   544.453
  ===> Total WRF-GC                        641.320
 max optd  1.9364301E+31
 max taucldi  0.9099926    
 max taucldw  5.7781897E-08
 Switching is not necessary as we are already
 in the right domain!
 GIGC_Chunk_Run: Running for in-PET grid #           1
 GIGC_Chunk_Run: Received new grid IM, JM, LM =          15           9
          49
 =================================================
 W R F - G C   T I M E R S
    Domain           1 (Units: s)
 =================================================
  => Coupler Component                       0.940
   -- Physics & Parameterization             0.238
   -- Diagnostics Out                        0.000
  => GEOS-Chem Column                       96.989
  ===> Total Chemistry                      97.929
  => WRF                                   562.682
  ===> Total WRF-GC                        660.611
 max optd  1.9364301E+31
 max taucldi  0.9330668    
 max taucldw  5.8881966E-08
 Switching is not necessary as we are already
 in the right domain!
 GIGC_Chunk_Run: Running for in-PET grid #           1
 GIGC_Chunk_Run: Received new grid IM, JM, LM =          15           9
          49
 =================================================
 W R F - G C   T I M E R S
    Domain           1 (Units: s)
 =================================================
  => Coupler Component                       0.975
   -- Physics & Parameterization             0.247
   -- Diagnostics Out                        0.000
  => GEOS-Chem Column                       98.060
  ===> Total Chemistry                      99.035
  => WRF                                   580.804
  ===> Total WRF-GC                        679.839
 max optd  1.9364301E+31
 max taucldi  0.9490768    
 max taucldw  6.0184796E-08
 Switching is not necessary as we are already
 in the right domain!
 GIGC_Chunk_Run: Running for in-PET grid #           1
 GIGC_Chunk_Run: Received new grid IM, JM, LM =          15           9
          49
 =================================================
 W R F - G C   T I M E R S
    Domain           1 (Units: s)
 =================================================
  => Coupler Component                       1.021
   -- Physics & Parameterization             0.256
   -- Diagnostics Out                        0.000
  => GEOS-Chem Column                       99.100
  ===> Total Chemistry                     100.121
  => WRF                                   598.899
  ===> Total WRF-GC                        699.020
 max optd  1.9364301E+31
 max taucldi  0.9649177    
 max taucldw  6.2155891E-08
 Switching is not necessary as we are already
 in the right domain!
 GIGC_Chunk_Run: Running for in-PET grid #           1
 GIGC_Chunk_Run: Received new grid IM, JM, LM =          15           9
          49
 =================================================
 W R F - G C   T I M E R S
    Domain           1 (Units: s)
 =================================================
  => Coupler Component                       1.060
   -- Physics & Parameterization             0.265
   -- Diagnostics Out                        0.000
  => GEOS-Chem Column                      100.153
  ===> Total Chemistry                     101.213
  => WRF                                   617.046
  ===> Total WRF-GC                        718.259
 max optd  1.9364301E+31
 max taucldi  0.9836926    
 max taucldw  6.3766294E-08
 Switching is not necessary as we are already
 in the right domain!
 GIGC_Chunk_Run: Running for in-PET grid #           1
 GIGC_Chunk_Run: Received new grid IM, JM, LM =          15           9
          49
 =================================================
 W R F - G C   T I M E R S
    Domain           1 (Units: s)
 =================================================
  => Coupler Component                       1.096
   -- Physics & Parameterization             0.274
   -- Diagnostics Out                        0.000
  => GEOS-Chem Column                      101.214
  ===> Total Chemistry                     102.310
  => WRF                                   635.179
  ===> Total WRF-GC                        737.488
 max optd  1.9364301E+31
 max taucldi  0.9899962    
 max taucldw  6.6026779E-08
 Switching is not necessary as we are already
 in the right domain!
 GIGC_Chunk_Run: Running for in-PET grid #           1
 GIGC_Chunk_Run: Received new grid IM, JM, LM =          15           9
          49
 =================================================
 W R F - G C   T I M E R S
    Domain           1 (Units: s)
 =================================================
  => Coupler Component                       1.132
   -- Physics & Parameterization             0.283
   -- Diagnostics Out                        0.000
  => GEOS-Chem Column                      102.289
  ===> Total Chemistry                     103.421
  => WRF                                   653.314
  ===> Total WRF-GC                        756.735
 max optd  1.9364301E+31
 max taucldi   1.031301    
 max taucldw  6.7693470E-08
 Switching is not necessary as we are already
 in the right domain!
 GIGC_Chunk_Run: Running for in-PET grid #           1
 GIGC_Chunk_Run: Received new grid IM, JM, LM =          15           9
          49
 =================================================
 W R F - G C   T I M E R S
    Domain           1 (Units: s)
 =================================================
  => Coupler Component                       1.172
   -- Physics & Parameterization             0.292
   -- Diagnostics Out                        0.000
  => GEOS-Chem Column                      103.334
  ===> Total Chemistry                     104.507
  => WRF                                   671.387
  ===> Total WRF-GC                        775.893
 max optd  1.9364301E+31
 max taucldi   1.062294    
 max taucldw  6.9806845E-08
 Switching is not necessary as we are already
 in the right domain!
 GIGC_Chunk_Run: Running for in-PET grid #           1
 GIGC_Chunk_Run: Received new grid IM, JM, LM =          15           9
          49
 =================================================
 W R F - G C   T I M E R S
    Domain           1 (Units: s)
 =================================================
  => Coupler Component                       1.209
   -- Physics & Parameterization             0.301
   -- Diagnostics Out                        0.000
  => GEOS-Chem Column                      104.402
  ===> Total Chemistry                     105.611
  => WRF                                   689.499
  ===> Total WRF-GC                        795.111
 max optd  1.9364301E+31
 max taucldi   1.098284    
 max taucldw  7.1485204E-08
 Switching is not necessary as we are already
 in the right domain!
 GIGC_Chunk_Run: Running for in-PET grid #           1
 GIGC_Chunk_Run: Received new grid IM, JM, LM =          15           9
          49
 =================================================
 W R F - G C   T I M E R S
    Domain           1 (Units: s)
 =================================================
  => Coupler Component                       1.246
   -- Physics & Parameterization             0.309
   -- Diagnostics Out                        0.000
  => GEOS-Chem Column                      105.460
  ===> Total Chemistry                     106.706
  => WRF                                   707.622
  ===> Total WRF-GC                        814.328
 max optd  1.9364301E+31
 max taucldi   1.128979    
 max taucldw  7.3244522E-08
 Switching is not necessary as we are already
 in the right domain!
 GIGC_Chunk_Run: Running for in-PET grid #           1
 GIGC_Chunk_Run: Received new grid IM, JM, LM =          15           9
          49
 =================================================
 W R F - G C   T I M E R S
    Domain           1 (Units: s)
 =================================================
  => Coupler Component                       1.284
   -- Physics & Parameterization             0.318
   -- Diagnostics Out                        0.000
  => GEOS-Chem Column                      106.519
  ===> Total Chemistry                     107.803
  => WRF                                   725.691
  ===> Total WRF-GC                        833.494
 max optd  1.9364301E+31
 max taucldi   1.144216    
 max taucldw  7.5131275E-08
 Switching is not necessary as we are already
 in the right domain!
 GIGC_Chunk_Run: Running for in-PET grid #           1
 GIGC_Chunk_Run: Received new grid IM, JM, LM =          15           9
          49
 =================================================
 W R F - G C   T I M E R S
    Domain           1 (Units: s)
 =================================================
  => Coupler Component                       1.322
   -- Physics & Parameterization             0.327
   -- Diagnostics Out                        0.000
  => GEOS-Chem Column                      107.585
  ===> Total Chemistry                     108.907
  => WRF                                   743.762
  ===> Total WRF-GC                        852.669
 HOURLY EMISSIONS UPDATE TIME    10800.0       0.0
mediation_integrate: med_read_wrf_chem_emissions: Read emissions for time 2018-01-01_03:00:00
 max optd  1.9364301E+31
 max taucldi   1.152388    
 max taucldw  7.7077011E-08
 Switching is not necessary as we are already
 in the right domain!
 GIGC_Chunk_Run: Running for in-PET grid #           1
 GIGC_Chunk_Run: Received new grid IM, JM, LM =          15           9
          49
 =================================================
 W R F - G C   T I M E R S
    Domain           1 (Units: s)
 =================================================
  => Coupler Component                       1.363
   -- Physics & Parameterization             0.336
   -- Diagnostics Out                        0.000
  => GEOS-Chem Column                      108.625
  ===> Total Chemistry                     109.988
  => WRF                                   761.874
  ===> Total WRF-GC                        871.862
 max optd  1.9364301E+31
 max taucldi   1.183642    
 max taucldw  7.8355839E-08
 Switching is not necessary as we are already
 in the right domain!
 GIGC_Chunk_Run: Running for in-PET grid #           1
 GIGC_Chunk_Run: Received new grid IM, JM, LM =          15           9
          49
 =================================================
 W R F - G C   T I M E R S
    Domain           1 (Units: s)
 =================================================
  => Coupler Component                       1.402
   -- Physics & Parameterization             0.345
   -- Diagnostics Out                        0.000
  => GEOS-Chem Column                      109.687
  ===> Total Chemistry                     111.089
  => WRF                                   779.977
  ===> Total WRF-GC                        891.066
 max optd  1.9364301E+31
 max taucldi   1.199349    
 max taucldw  8.0715004E-08
 Switching is not necessary as we are already
 in the right domain!
 GIGC_Chunk_Run: Running for in-PET grid #           1
 GIGC_Chunk_Run: Received new grid IM, JM, LM =          15           9
          49
 =================================================
 W R F - G C   T I M E R S
    Domain           1 (Units: s)
 =================================================
  => Coupler Component                       1.441
   -- Physics & Parameterization             0.354
   -- Diagnostics Out                        0.000
  => GEOS-Chem Column                      110.738
  ===> Total Chemistry                     112.179
  => WRF                                   798.076
  ===> Total WRF-GC                        910.255
 max optd  1.9364301E+31
 max taucldi   1.206815    
 max taucldw  8.2578296E-08
 Switching is not necessary as we are already
 in the right domain!
 GIGC_Chunk_Run: Running for in-PET grid #           1
 GIGC_Chunk_Run: Received new grid IM, JM, LM =          15           9
          49
 =================================================
 W R F - G C   T I M E R S
    Domain           1 (Units: s)
 =================================================
  => Coupler Component                       1.482
   -- Physics & Parameterization             0.363
   -- Diagnostics Out                        0.000
  => GEOS-Chem Column                      111.791
  ===> Total Chemistry                     113.273
  => WRF                                   816.174
  ===> Total WRF-GC                        929.447
 max optd  1.9364301E+31
 max taucldi   1.205546    
 max taucldw  8.4501991E-08
 Switching is not necessary as we are already
 in the right domain!
 GIGC_Chunk_Run: Running for in-PET grid #           1
 GIGC_Chunk_Run: Received new grid IM, JM, LM =          15           9
          49
 =================================================
 W R F - G C   T I M E R S
    Domain           1 (Units: s)
 =================================================
  => Coupler Component                       1.521
   -- Physics & Parameterization             0.372
   -- Diagnostics Out                        0.000
  => GEOS-Chem Column                      112.852
  ===> Total Chemistry                     114.373
  => WRF                                   834.232
  ===> Total WRF-GC                        948.605
 max optd  1.9364301E+31
 max taucldi   1.213463    
 max taucldw  8.6407155E-08
 Switching is not necessary as we are already
 in the right domain!
 GIGC_Chunk_Run: Running for in-PET grid #           1
 GIGC_Chunk_Run: Received new grid IM, JM, LM =          15           9
          49
 =================================================
 W R F - G C   T I M E R S
    Domain           1 (Units: s)
 =================================================
  => Coupler Component                       1.562
   -- Physics & Parameterization             0.381
   -- Diagnostics Out                        0.000
  => GEOS-Chem Column                      113.909
  ===> Total Chemistry                     115.471
  => WRF                                   852.563
  ===> Total WRF-GC                        968.034
 max optd  1.9364301E+31
 max taucldi   1.216999    
 max taucldw  8.8861803E-08
 Switching is not necessary as we are already
 in the right domain!
 GIGC_Chunk_Run: Running for in-PET grid #           1
 GIGC_Chunk_Run: Received new grid IM, JM, LM =          15           9
          49
 =================================================
 W R F - G C   T I M E R S
    Domain           1 (Units: s)
 =================================================
  => Coupler Component                       1.599
   -- Physics & Parameterization             0.390
   -- Diagnostics Out                        0.000
  => GEOS-Chem Column                      114.978
  ===> Total Chemistry                     116.577
  => WRF                                   870.728
  ===> Total WRF-GC                        987.305
 max optd  1.9364301E+31
 max taucldi   1.275850    
 max taucldw  9.1207340E-08
 Switching is not necessary as we are already
 in the right domain!
 GIGC_Chunk_Run: Running for in-PET grid #           1
 GIGC_Chunk_Run: Received new grid IM, JM, LM =          15           9
          49
 =================================================
 W R F - G C   T I M E R S
    Domain           1 (Units: s)
 =================================================
  => Coupler Component                       1.636
   -- Physics & Parameterization             0.399
   -- Diagnostics Out                        0.000
  => GEOS-Chem Column                      116.037
  ===> Total Chemistry                     117.673
  => WRF                                   888.766
  ===> Total WRF-GC                       1006.439
 max optd  1.9364301E+31
 max taucldi   1.315255    
 max taucldw  9.3888481E-08
 Switching is not necessary as we are already
 in the right domain!
 GIGC_Chunk_Run: Running for in-PET grid #           1
 GIGC_Chunk_Run: Received new grid IM, JM, LM =          15           9
          49
 =================================================
 W R F - G C   T I M E R S
    Domain           1 (Units: s)
 =================================================
  => Coupler Component                       1.671
   -- Physics & Parameterization             0.409
   -- Diagnostics Out                        0.000
  => GEOS-Chem Column                      117.111
  ===> Total Chemistry                     118.782
  => WRF                                   906.971
  ===> Total WRF-GC                       1025.753
 max optd  1.9364301E+31
 max taucldi   1.351409    
 max taucldw  9.5849380E-08
 Switching is not necessary as we are already
 in the right domain!
 GIGC_Chunk_Run: Running for in-PET grid #           1
 GIGC_Chunk_Run: Received new grid IM, JM, LM =          15           9
          49
 =================================================
 W R F - G C   T I M E R S
    Domain           1 (Units: s)
 =================================================
  => Coupler Component                       1.706
   -- Physics & Parameterization             0.418
   -- Diagnostics Out                        0.000
  => GEOS-Chem Column                      118.150
  ===> Total Chemistry                     119.856
  => WRF                                   925.119
  ===> Total WRF-GC                       1044.975
 max optd  1.9364301E+31
 max taucldi   1.379447    
 max taucldw  9.7817903E-08
 Switching is not necessary as we are already
 in the right domain!
 GIGC_Chunk_Run: Running for in-PET grid #           1
 GIGC_Chunk_Run: Received new grid IM, JM, LM =          15           9
          49
 =================================================
 W R F - G C   T I M E R S
    Domain           1 (Units: s)
 =================================================
  => Coupler Component                       1.742
   -- Physics & Parameterization             0.427
   -- Diagnostics Out                        0.000
  => GEOS-Chem Column                      119.234
  ===> Total Chemistry                     120.976
  => WRF                                   943.213
  ===> Total WRF-GC                       1064.189
 max optd  1.9364301E+31
 max taucldi   1.496861    
 max taucldw  9.9823424E-08
 Switching is not necessary as we are already
 in the right domain!
 GIGC_Chunk_Run: Running for in-PET grid #           1
 GIGC_Chunk_Run: Received new grid IM, JM, LM =          15           9
          49
 =================================================
 W R F - G C   T I M E R S
    Domain           1 (Units: s)
 =================================================
  => Coupler Component                       1.777
   -- Physics & Parameterization             0.436
   -- Diagnostics Out                        0.000
  => GEOS-Chem Column                      120.311
  ===> Total Chemistry                     122.088
  => WRF                                   961.318
  ===> Total WRF-GC                       1083.406
 HOURLY EMISSIONS UPDATE TIME    14400.0       0.0
mediation_integrate: med_read_wrf_chem_emissions: Read emissions for time 2018-01-01_04:00:00
 max optd  1.9364301E+31
 max taucldi   1.569559    
 max taucldw  1.0178773E-07
 Switching is not necessary as we are already
 in the right domain!
 GIGC_Chunk_Run: Running for in-PET grid #           1
 GIGC_Chunk_Run: Received new grid IM, JM, LM =          15           9
          49
 =================================================
 W R F - G C   T I M E R S
    Domain           1 (Units: s)
 =================================================
  => Coupler Component                       1.814
   -- Physics & Parameterization             0.445
   -- Diagnostics Out                        0.000
  => GEOS-Chem Column                      121.382
  ===> Total Chemistry                     123.196
  => WRF                                   979.444
  ===> Total WRF-GC                       1102.640
 max optd  1.9364301E+31
 max taucldi   1.621682    
 max taucldw  1.0412688E-07
 Switching is not necessary as we are already
 in the right domain!
 GIGC_Chunk_Run: Running for in-PET grid #           1
 GIGC_Chunk_Run: Received new grid IM, JM, LM =          15           9
          49
 =================================================
 W R F - G C   T I M E R S
    Domain           1 (Units: s)
 =================================================
  => Coupler Component                       1.853
   -- Physics & Parameterization             0.454
   -- Diagnostics Out                        0.000
  => GEOS-Chem Column                      122.447
  ===> Total Chemistry                     124.300
  => WRF                                   997.563
  ===> Total WRF-GC                       1121.864
 max optd  1.9364301E+31
 max taucldi   1.665722    
 max taucldw  1.0578797E-07
 Switching is not necessary as we are already
 in the right domain!
 GIGC_Chunk_Run: Running for in-PET grid #           1
 GIGC_Chunk_Run: Received new grid IM, JM, LM =          15           9
          49
 =================================================
 W R F - G C   T I M E R S
    Domain           1 (Units: s)
 =================================================
  => Coupler Component                       1.890
   -- Physics & Parameterization             0.463
   -- Diagnostics Out                        0.000
  => GEOS-Chem Column                      123.520
  ===> Total Chemistry                     125.410
  => WRF                                  1015.766
  ===> Total WRF-GC                       1141.176
 max optd  1.9364301E+31
 max taucldi   1.711834    
 max taucldw  1.0747106E-07
 Switching is not necessary as we are already
 in the right domain!
 GIGC_Chunk_Run: Running for in-PET grid #           1
 GIGC_Chunk_Run: Received new grid IM, JM, LM =          15           9
          49
 =================================================
 W R F - G C   T I M E R S
    Domain           1 (Units: s)
 =================================================
  => Coupler Component                       1.935
   -- Physics & Parameterization             0.473
   -- Diagnostics Out                        0.000
  => GEOS-Chem Column                      124.553
  ===> Total Chemistry                     126.488
  => WRF                                  1033.870
  ===> Total WRF-GC                       1160.358
 max optd  1.9364301E+31
 max taucldi   1.756878    
 max taucldw  1.0943265E-07
 Switching is not necessary as we are already
 in the right domain!
 GIGC_Chunk_Run: Running for in-PET grid #           1
 GIGC_Chunk_Run: Received new grid IM, JM, LM =          15           9
          49
 =================================================
 W R F - G C   T I M E R S
    Domain           1 (Units: s)
 =================================================
  => Coupler Component                       1.972
   -- Physics & Parameterization             0.482
   -- Diagnostics Out                        0.000
  => GEOS-Chem Column                      125.609
  ===> Total Chemistry                     127.581
  => WRF                                  1052.031
  ===> Total WRF-GC                       1179.612
 max optd  1.9364301E+31
 max taucldi   1.808540    
 max taucldw  1.1089141E-07
 Switching is not necessary as we are already
 in the right domain!
 GIGC_Chunk_Run: Running for in-PET grid #           1
 GIGC_Chunk_Run: Received new grid IM, JM, LM =          15           9
          49
 =================================================
 W R F - G C   T I M E R S
    Domain           1 (Units: s)
 =================================================
  => Coupler Component                       2.009
   -- Physics & Parameterization             0.491
   -- Diagnostics Out                        0.000
  => GEOS-Chem Column                      126.679
  ===> Total Chemistry                     128.687
  => WRF                                  1070.175
  ===> Total WRF-GC                       1198.863
 max optd  1.9364301E+31
 max taucldi   1.859096    
 max taucldw  1.1206995E-07
 Switching is not necessary as we are already
 in the right domain!
 GIGC_Chunk_Run: Running for in-PET grid #           1
 GIGC_Chunk_Run: Received new grid IM, JM, LM =          15           9
          49
 =================================================
 W R F - G C   T I M E R S
    Domain           1 (Units: s)
 =================================================
  => Coupler Component                       2.048
   -- Physics & Parameterization             0.499
   -- Diagnostics Out                        0.000
  => GEOS-Chem Column                      127.745
  ===> Total Chemistry                     129.793
  => WRF                                  1088.353
  ===> Total WRF-GC                       1218.147
 max optd  1.9364301E+31
 max taucldi   1.864853    
 max taucldw  1.1242619E-07
 Switching is not necessary as we are already
 in the right domain!
 GIGC_Chunk_Run: Running for in-PET grid #           1
 GIGC_Chunk_Run: Received new grid IM, JM, LM =          15           9
          49
 =================================================
 W R F - G C   T I M E R S
    Domain           1 (Units: s)
 =================================================
  => Coupler Component                       2.082
   -- Physics & Parameterization             0.508
   -- Diagnostics Out                        0.000
  => GEOS-Chem Column                      128.822
  ===> Total Chemistry                     130.904
  => WRF                                  1106.453
  ===> Total WRF-GC                       1237.358
 max optd  1.9364301E+31
 max taucldi   1.886994    
 max taucldw  1.1359962E-07
 Switching is not necessary as we are already
 in the right domain!
 GIGC_Chunk_Run: Running for in-PET grid #           1
 GIGC_Chunk_Run: Received new grid IM, JM, LM =          15           9
          49
 =================================================
 W R F - G C   T I M E R S
    Domain           1 (Units: s)
 =================================================
  => Coupler Component                       2.119
   -- Physics & Parameterization             0.517
   -- Diagnostics Out                        0.000
  => GEOS-Chem Column                      129.900
  ===> Total Chemistry                     132.018
  => WRF                                  1124.579
  ===> Total WRF-GC                       1256.597
 max optd  1.9364301E+31
 max taucldi   1.873449    
 max taucldw  1.1502685E-07
 Switching is not necessary as we are already
 in the right domain!
 GIGC_Chunk_Run: Running for in-PET grid #           1
 GIGC_Chunk_Run: Received new grid IM, JM, LM =          15           9
          49
 =================================================
 W R F - G C   T I M E R S
    Domain           1 (Units: s)
 =================================================
  => Coupler Component                       2.159
   -- Physics & Parameterization             0.527
   -- Diagnostics Out                        0.000
  => GEOS-Chem Column                      130.946
  ===> Total Chemistry                     133.105
  => WRF                                  1142.677
  ===> Total WRF-GC                       1275.781
 max optd  1.9364301E+31
 max taucldi   1.797088    
 max taucldw  1.1615706E-07
 Switching is not necessary as we are already
 in the right domain!
 GIGC_Chunk_Run: Running for in-PET grid #           1
 GIGC_Chunk_Run: Received new grid IM, JM, LM =          15           9
          49
 =================================================
 W R F - G C   T I M E R S
    Domain           1 (Units: s)
 =================================================
  => Coupler Component                       2.193
   -- Physics & Parameterization             0.536
   -- Diagnostics Out                        0.000
  => GEOS-Chem Column                      132.028
  ===> Total Chemistry                     134.222
  => WRF                                  1160.778
  ===> Total WRF-GC                       1295.000
 max optd  1.9364301E+31
 max taucldi   1.555923    
 max taucldw  1.1729123E-07
 Switching is not necessary as we are already
 in the right domain!
 GIGC_Chunk_Run: Running for in-PET grid #           1
 GIGC_Chunk_Run: Received new grid IM, JM, LM =          15           9
          49
 =================================================
 W R F - G C   T I M E R S
    Domain           1 (Units: s)
 =================================================
  => Coupler Component                       2.229
   -- Physics & Parameterization             0.545
   -- Diagnostics Out                        0.000
  => GEOS-Chem Column                      133.105
  ===> Total Chemistry                     135.335
  => WRF                                  1178.815
  ===> Total WRF-GC                       1314.149
 HOURLY EMISSIONS UPDATE TIME    18000.0       0.0
mediation_integrate: med_read_wrf_chem_emissions: Read emissions for time 2018-01-01_05:00:00
 max optd  1.9364301E+31
 max taucldi   1.555321    
 max taucldw  1.1828664E-07
 Switching is not necessary as we are already
 in the right domain!
 GIGC_Chunk_Run: Running for in-PET grid #           1
 GIGC_Chunk_Run: Received new grid IM, JM, LM =          15           9
          49
 =================================================
 W R F - G C   T I M E R S
    Domain           1 (Units: s)
 =================================================
  => Coupler Component                       2.274
   -- Physics & Parameterization             0.554
   -- Diagnostics Out                        0.000
  => GEOS-Chem Column                      134.141
  ===> Total Chemistry                     136.415
  => WRF                                  1196.953
  ===> Total WRF-GC                       1333.368
 max optd  1.9364301E+31
 max taucldi   1.576015    
 max taucldw  1.1850189E-07
 Switching is not necessary as we are already
 in the right domain!
 GIGC_Chunk_Run: Running for in-PET grid #           1
 GIGC_Chunk_Run: Received new grid IM, JM, LM =          15           9
          49
 =================================================
 W R F - G C   T I M E R S
    Domain           1 (Units: s)
 =================================================
  => Coupler Component                       2.311
   -- Physics & Parameterization             0.563
   -- Diagnostics Out                        0.000
  => GEOS-Chem Column                      135.211
  ===> Total Chemistry                     137.523
  => WRF                                  1215.080
  ===> Total WRF-GC                       1352.602
 max optd  1.9364301E+31
 max taucldi   1.597074    
 max taucldw  1.1869068E-07
 Switching is not necessary as we are already
 in the right domain!
 GIGC_Chunk_Run: Running for in-PET grid #           1
 GIGC_Chunk_Run: Received new grid IM, JM, LM =          15           9
          49
 =================================================
 W R F - G C   T I M E R S
    Domain           1 (Units: s)
 =================================================
  => Coupler Component                       2.351
   -- Physics & Parameterization             0.572
   -- Diagnostics Out                        0.000
  => GEOS-Chem Column                      136.271
  ===> Total Chemistry                     138.622
  => WRF                                  1233.156
  ===> Total WRF-GC                       1371.777
 max optd  1.9364301E+31
 max taucldi   1.632616    
 max taucldw  1.1883854E-07
 Switching is not necessary as we are already
 in the right domain!
 GIGC_Chunk_Run: Running for in-PET grid #           1
 GIGC_Chunk_Run: Received new grid IM, JM, LM =          15           9
          49
 =================================================
 W R F - G C   T I M E R S
    Domain           1 (Units: s)
 =================================================
  => Coupler Component                       2.387
   -- Physics & Parameterization             0.581
   -- Diagnostics Out                        0.000
  => GEOS-Chem Column                      137.347
  ===> Total Chemistry                     139.734
  => WRF                                  1251.297
  ===> Total WRF-GC                       1391.031
 max optd  1.9364301E+31
 max taucldi   1.671907    
 max taucldw  1.1929407E-07
 Switching is not necessary as we are already
 in the right domain!
 GIGC_Chunk_Run: Running for in-PET grid #           1
 GIGC_Chunk_Run: Received new grid IM, JM, LM =          15           9
          49
 =================================================
 W R F - G C   T I M E R S
    Domain           1 (Units: s)
 =================================================
  => Coupler Component                       2.430
   -- Physics & Parameterization             0.590
   -- Diagnostics Out                        0.000
  => GEOS-Chem Column                      138.386
  ===> Total Chemistry                     140.816
  => WRF                                  1269.451
  ===> Total WRF-GC                       1410.267
 max optd  1.9364301E+31
 max taucldi   1.606902    
 max taucldw  1.1917256E-07
 Switching is not necessary as we are already
 in the right domain!
 GIGC_Chunk_Run: Running for in-PET grid #           1
 GIGC_Chunk_Run: Received new grid IM, JM, LM =          15           9
          49
 =================================================
 W R F - G C   T I M E R S
    Domain           1 (Units: s)
 =================================================
  => Coupler Component                       2.469
   -- Physics & Parameterization             0.599
   -- Diagnostics Out                        0.000
  => GEOS-Chem Column                      139.455
  ===> Total Chemistry                     141.924
  => WRF                                  1287.550
  ===> Total WRF-GC                       1429.473
 max optd  1.9364301E+31
 max taucldi   1.420248    
 max taucldw  1.1921685E-07
 Switching is not necessary as we are already
 in the right domain!
 GIGC_Chunk_Run: Running for in-PET grid #           1
 GIGC_Chunk_Run: Received new grid IM, JM, LM =          15           9
          49
 =================================================
 W R F - G C   T I M E R S
    Domain           1 (Units: s)
 =================================================
  => Coupler Component                       2.509
   -- Physics & Parameterization             0.608
   -- Diagnostics Out                        0.000
  => GEOS-Chem Column                      140.520
  ===> Total Chemistry                     143.028
  => WRF                                  1305.728
  ===> Total WRF-GC                       1448.756
 max optd  1.9364301E+31
 max taucldi   1.271400    
 max taucldw  1.1926868E-07
 Switching is not necessary as we are already
 in the right domain!
 GIGC_Chunk_Run: Running for in-PET grid #           1
 GIGC_Chunk_Run: Received new grid IM, JM, LM =          15           9
          49
 =================================================
 W R F - G C   T I M E R S
    Domain           1 (Units: s)
 =================================================
  => Coupler Component                       2.553
   -- Physics & Parameterization             0.617
   -- Diagnostics Out                        0.000
  => GEOS-Chem Column                      141.555
  ===> Total Chemistry                     144.108
  => WRF                                  1323.821
  ===> Total WRF-GC                       1467.929
 max optd  1.9364301E+31
 max taucldi   1.304260    
 max taucldw  1.1962702E-07
 Switching is not necessary as we are already
 in the right domain!
 GIGC_Chunk_Run: Running for in-PET grid #           1
 GIGC_Chunk_Run: Received new grid IM, JM, LM =          15           9
          49
 =================================================
 W R F - G C   T I M E R S
    Domain           1 (Units: s)
 =================================================
  => Coupler Component                       2.590
   -- Physics & Parameterization             0.627
   -- Diagnostics Out                        0.000
  => GEOS-Chem Column                      142.624
  ===> Total Chemistry                     145.215
  => WRF                                  1342.007
  ===> Total WRF-GC                       1487.222
 max optd  1.9364301E+31
 max taucldi   1.403168    
 max taucldw  1.1947651E-07
 Switching is not necessary as we are already
 in the right domain!
 GIGC_Chunk_Run: Running for in-PET grid #           1
 GIGC_Chunk_Run: Received new grid IM, JM, LM =          15           9
          49
 =================================================
 W R F - G C   T I M E R S
    Domain           1 (Units: s)
 =================================================
  => Coupler Component                       2.630
   -- Physics & Parameterization             0.636
   -- Diagnostics Out                        0.000
  => GEOS-Chem Column                      143.690
  ===> Total Chemistry                     146.321
  => WRF                                  1360.398
  ===> Total WRF-GC                       1506.719
 max optd  1.9364301E+31
 max taucldi   1.409511    
 max taucldw  1.1941449E-07
 Switching is not necessary as we are already
 in the right domain!
 GIGC_Chunk_Run: Running for in-PET grid #           1
 GIGC_Chunk_Run: Received new grid IM, JM, LM =          15           9
          49
 =================================================
 W R F - G C   T I M E R S
    Domain           1 (Units: s)
 =================================================
  => Coupler Component                       2.670
   -- Physics & Parameterization             0.645
   -- Diagnostics Out                        0.000
  => GEOS-Chem Column                      144.732
  ===> Total Chemistry                     147.402
  => WRF                                  1378.505
  ===> Total WRF-GC                       1525.907
 max optd  1.9364301E+31
 max taucldi   1.435235    
 max taucldw  1.1935042E-07
 Switching is not necessary as we are already
 in the right domain!
 GIGC_Chunk_Run: Running for in-PET grid #           1
 GIGC_Chunk_Run: Received new grid IM, JM, LM =          15           9
          49
 =================================================
 W R F - G C   T I M E R S
    Domain           1 (Units: s)
 =================================================
  => Coupler Component                       2.708
   -- Physics & Parameterization             0.654
   -- Diagnostics Out                        0.000
  => GEOS-Chem Column                      145.791
  ===> Total Chemistry                     148.500
  => WRF                                  1396.650
  ===> Total WRF-GC                       1545.150
 HOURLY EMISSIONS UPDATE TIME    21600.0       0.0
mediation_integrate: med_read_wrf_chem_emissions: Read emissions for time 2018-01-01_06:00:00
 max optd  1.9364301E+31
 max taucldi   1.462425    
 max taucldw  1.1929275E-07
 Switching is not necessary as we are already
 in the right domain!
 GIGC_Chunk_Run: Running for in-PET grid #           1
 GIGC_Chunk_Run: Received new grid IM, JM, LM =          15           9
          49
 =================================================
 W R F - G C   T I M E R S
    Domain           1 (Units: s)
 =================================================
  => Coupler Component                       2.747
   -- Physics & Parameterization             0.663
   -- Diagnostics Out                        0.000
  => GEOS-Chem Column                      146.844
  ===> Total Chemistry                     149.590
  => WRF                                  1855.321
  ===> Total WRF-GC                       2004.911
 max optd  1.9364301E+31
 max taucldi   1.503985    
 max taucldw  1.1931157E-07
 Switching is not necessary as we are already
 in the right domain!
 GIGC_Chunk_Run: Running for in-PET grid #           1
 GIGC_Chunk_Run: Received new grid IM, JM, LM =          15           9
          49
 =================================================
 W R F - G C   T I M E R S
    Domain           1 (Units: s)
 =================================================
  => Coupler Component                       2.789
   -- Physics & Parameterization             0.672
   -- Diagnostics Out                        0.000
  => GEOS-Chem Column                      147.907
  ===> Total Chemistry                     150.695
  => WRF                                  1873.463
  ===> Total WRF-GC                       2024.158
 max optd  1.9364301E+31
 max taucldi   1.550145    
 max taucldw  1.1906979E-07
 Switching is not necessary as we are already
 in the right domain!
 GIGC_Chunk_Run: Running for in-PET grid #           1
 GIGC_Chunk_Run: Received new grid IM, JM, LM =          15           9
          49
 =================================================
 W R F - G C   T I M E R S
    Domain           1 (Units: s)
 =================================================
  => Coupler Component                       2.836
   -- Physics & Parameterization             0.682
   -- Diagnostics Out                        0.000
  => GEOS-Chem Column                      148.951
  ===> Total Chemistry                     151.787
  => WRF                                  1891.721
  ===> Total WRF-GC                       2043.508
 max optd  1.9364301E+31
 max taucldi   1.556950    
 max taucldw  1.1923193E-07
 Switching is not necessary as we are already
 in the right domain!
 GIGC_Chunk_Run: Running for in-PET grid #           1
 GIGC_Chunk_Run: Received new grid IM, JM, LM =          15           9
          49
 =================================================
 W R F - G C   T I M E R S
    Domain           1 (Units: s)
 =================================================
  => Coupler Component                       2.882
[...]
  => GEOS-Chem Column                      196.430
  ===> Total Chemistry                     201.163
  => WRF                                  2709.593
  ===> Total WRF-GC                       2910.756
 HOURLY EMISSIONS UPDATE TIME    36000.0       0.0
mediation_integrate: med_read_wrf_chem_emissions: Read emissions for time 2018-01-01_10:00:00
 max optd  1.9364301E+31
 max taucldi   1.917243    
 max taucldw  1.2033777E-07
 Switching is not necessary as we are already
 in the right domain!
 GIGC_Chunk_Run: Running for in-PET grid #           1
 GIGC_Chunk_Run: Received new grid IM, JM, LM =          15           9
          49
 =================================================
 W R F - G C   T I M E R S
    Domain           1 (Units: s)
 =================================================
  => Coupler Component                       4.773
   -- Physics & Parameterization             1.110
   -- Diagnostics Out                        0.000
  => GEOS-Chem Column                      197.498
  ===> Total Chemistry                     202.271
  => WRF                                  2727.828
  ===> Total WRF-GC                       2930.099
 max optd  1.9364301E+31
 max taucldi   1.932878    
 max taucldw  1.2040978E-07
 Switching is not necessary as we are already
 in the right domain!
 GIGC_Chunk_Run: Running for in-PET grid #           1
 GIGC_Chunk_Run: Received new grid IM, JM, LM =          15           9
          49
 =================================================
 W R F - G C   T I M E R S
    Domain           1 (Units: s)
 =================================================
  => Coupler Component                       4.809
   -- Physics & Parameterization             1.119
   -- Diagnostics Out                        0.000
  => GEOS-Chem Column                      198.570
  ===> Total Chemistry                     203.379
  => WRF                                  2745.960
  ===> Total WRF-GC                       2949.339
 max optd  1.9364301E+31
 max taucldi   1.975659    
 max taucldw  1.2053020E-07
 Switching is not necessary as we are already
 in the right domain!
 GIGC_Chunk_Run: Running for in-PET grid #           1
 GIGC_Chunk_Run: Received new grid IM, JM, LM =          15           9
          49
 =================================================
 W R F - G C   T I M E R S
    Domain           1 (Units: s)
 =================================================
  => Coupler Component                       4.850
   -- Physics & Parameterization             1.129
   -- Diagnostics Out                        0.000
  => GEOS-Chem Column                      199.634
  ===> Total Chemistry                     204.484
  => WRF                                  2764.088
  ===> Total WRF-GC                       2968.572
 max optd  1.9364301E+31
 max taucldi   2.008907    
 max taucldw  1.2089671E-07
 Switching is not necessary as we are already
 in the right domain!
 GIGC_Chunk_Run: Running for in-PET grid #           1
 GIGC_Chunk_Run: Received new grid IM, JM, LM =          15           9
          49
 =================================================
 W R F - G C   T I M E R S
    Domain           1 (Units: s)
 =================================================
  => Coupler Component                       4.894
   -- Physics & Parameterization             1.138
   -- Diagnostics Out                        0.000
  => GEOS-Chem Column                      200.683
  ===> Total Chemistry                     205.577
  => WRF                                  2782.310
  ===> Total WRF-GC                       2987.887
 max optd  1.9364301E+31
 max taucldi   2.064823    
 max taucldw  1.2117629E-07
 Switching is not necessary as we are already
 in the right domain!
 GIGC_Chunk_Run: Running for in-PET grid #           1
 GIGC_Chunk_Run: Received new grid IM, JM, LM =          15           9
          49
 =================================================
 W R F - G C   T I M E R S
    Domain           1 (Units: s)
 =================================================
  => Coupler Component                       4.943
   -- Physics & Parameterization             1.147
   -- Diagnostics Out                        0.000
  => GEOS-Chem Column                      201.732
  ===> Total Chemistry                     206.675
  => WRF                                  2800.497
  ===> Total WRF-GC                       3007.172
 max optd  1.9364301E+31
 max taucldi   2.106773    
 max taucldw  1.2162388E-07
 Switching is not necessary as we are already
 in the right domain!
 GIGC_Chunk_Run: Running for in-PET grid #           1
 GIGC_Chunk_Run: Received new grid IM, JM, LM =          15           9
          49
 =================================================
 W R F - G C   T I M E R S
    Domain           1 (Units: s)
 =================================================
  => Coupler Component                       4.986
   -- Physics & Parameterization             1.157
   -- Diagnostics Out                        0.000
  => GEOS-Chem Column                      202.792
  ===> Total Chemistry                     207.778
  => WRF                                  2818.588
  ===> Total WRF-GC                       3026.366
 max optd  1.9364301E+31
 max taucldi   2.135298    
 max taucldw  1.2219608E-07
 Switching is not necessary as we are already
 in the right domain!
 GIGC_Chunk_Run: Running for in-PET grid #           1
 GIGC_Chunk_Run: Received new grid IM, JM, LM =          15           9
          49
 =================================================
 W R F - G C   T I M E R S
    Domain           1 (Units: s)
 =================================================
  => Coupler Component                       5.031
   -- Physics & Parameterization             1.166
   -- Diagnostics Out                        0.000
  => GEOS-Chem Column                      203.842
  ===> Total Chemistry                     208.873
  => WRF                                  2836.772
  ===> Total WRF-GC                       3045.645
 max optd  1.9364301E+31
 max taucldi   2.116838    
 max taucldw  1.2297234E-07
 Switching is not necessary as we are already
 in the right domain!
 GIGC_Chunk_Run: Running for in-PET grid #           1
 GIGC_Chunk_Run: Received new grid IM, JM, LM =          15           9
          49
 =================================================
 W R F - G C   T I M E R S
    Domain           1 (Units: s)
 =================================================
  => Coupler Component                       5.073
   -- Physics & Parameterization             1.176
   -- Diagnostics Out                        0.000
  => GEOS-Chem Column                      204.911
  ===> Total Chemistry                     209.984
  => WRF                                  2854.930
  ===> Total WRF-GC                       3064.914
 max optd  1.9364301E+31
 max taucldi   2.140167    
 max taucldw  1.2397426E-07
 Switching is not necessary as we are already
 in the right domain!
 GIGC_Chunk_Run: Running for in-PET grid #           1
 GIGC_Chunk_Run: Received new grid IM, JM, LM =          15           9
          49
 =================================================
 W R F - G C   T I M E R S
    Domain           1 (Units: s)
 =================================================
  => Coupler Component                       5.115
   -- Physics & Parameterization             1.186
   -- Diagnostics Out                        0.000
  => GEOS-Chem Column                      205.978
  ===> Total Chemistry                     211.094
  => WRF                                  2873.049
  ===> Total WRF-GC                       3084.142
 max optd  1.9364301E+31
 max taucldi   2.139469    
 max taucldw  1.2488695E-07
 Switching is not necessary as we are already
 in the right domain!
 GIGC_Chunk_Run: Running for in-PET grid #           1
 GIGC_Chunk_Run: Received new grid IM, JM, LM =          15           9
          49
 =================================================
 W R F - G C   T I M E R S
    Domain           1 (Units: s)
 =================================================
  => Coupler Component                       5.163
   -- Physics & Parameterization             1.195
   -- Diagnostics Out                        0.000
  => GEOS-Chem Column                      207.031
  ===> Total Chemistry                     212.194
  => WRF                                  2891.234
  ===> Total WRF-GC                       3103.428
 max optd  1.9364301E+31
 max taucldi   2.140559    
 max taucldw  1.2590387E-07
 Switching is not necessary as we are already
 in the right domain!
 GIGC_Chunk_Run: Running for in-PET grid #           1
 GIGC_Chunk_Run: Received new grid IM, JM, LM =          15           9
          49
 =================================================
 W R F - G C   T I M E R S
    Domain           1 (Units: s)
 =================================================
  => Coupler Component                       5.208
   -- Physics & Parameterization             1.204
   -- Diagnostics Out                        0.000
  => GEOS-Chem Column                      208.086
  ===> Total Chemistry                     213.294
  => WRF                                  2909.377
  ===> Total WRF-GC                       3122.672
 max optd  1.9364301E+31
 max taucldi   2.173829    
 max taucldw  1.2699729E-07
 Switching is not necessary as we are already
 in the right domain!
 GIGC_Chunk_Run: Running for in-PET grid #           1
 GIGC_Chunk_Run: Received new grid IM, JM, LM =          15           9
          49
 =================================================
 W R F - G C   T I M E R S
    Domain           1 (Units: s)
 =================================================
  => Coupler Component                       5.255
   -- Physics & Parameterization             1.214
   -- Diagnostics Out                        0.000
  => GEOS-Chem Column                      209.138
  ===> Total Chemistry                     214.393
  => WRF                                  2927.568
  ===> Total WRF-GC                       3141.961
 HOURLY EMISSIONS UPDATE TIME    39600.0       0.0
mediation_integrate: med_read_wrf_chem_emissions: Read emissions for time 2018-01-01_11:00:00
 max optd  1.9364301E+31
 max taucldi   2.230814    
 max taucldw  1.2824715E-07
 Switching is not necessary as we are already
 in the right domain!
 GIGC_Chunk_Run: Running for in-PET grid #           1
 GIGC_Chunk_Run: Received new grid IM, JM, LM =          15           9
          49
 =================================================
 W R F - G C   T I M E R S
    Domain           1 (Units: s)
 =================================================
  => Coupler Component                       5.305
   -- Physics & Parameterization             1.223
   -- Diagnostics Out                        0.000
  => GEOS-Chem Column                      210.182
  ===> Total Chemistry                     215.487
  => WRF                                  2945.756
  ===> Total WRF-GC                       3161.243
 max optd  1.9364301E+31
 max taucldi   2.191470    
 max taucldw  1.2960753E-07
 Switching is not necessary as we are already
 in the right domain!
 GIGC_Chunk_Run: Running for in-PET grid #           1
 GIGC_Chunk_Run: Received new grid IM, JM, LM =          15           9
          49
 =================================================
 W R F - G C   T I M E R S
    Domain           1 (Units: s)
 =================================================
  => Coupler Component                       5.350
   -- Physics & Parameterization             1.232
   -- Diagnostics Out                        0.000
  => GEOS-Chem Column                      211.244
  ===> Total Chemistry                     216.595
  => WRF                                  2963.889
  ===> Total WRF-GC                       3180.484
 max optd  1.9364301E+31
 max taucldi   2.153322    
 max taucldw  1.3106516E-07
 Switching is not necessary as we are already
 in the right domain!
 GIGC_Chunk_Run: Running for in-PET grid #           1
 GIGC_Chunk_Run: Received new grid IM, JM, LM =          15           9
          49
 =================================================
 W R F - G C   T I M E R S
    Domain           1 (Units: s)
 =================================================
  => Coupler Component                       5.396
   -- Physics & Parameterization             1.241
   -- Diagnostics Out                        0.000
  => GEOS-Chem Column                      212.298
  ===> Total Chemistry                     217.694
  => WRF                                  2982.104
  ===> Total WRF-GC                       3199.797
 max optd  1.9364301E+31
 max taucldi   2.113580    
 max taucldw  1.3258099E-07
 Switching is not necessary as we are already
 in the right domain!
 GIGC_Chunk_Run: Running for in-PET grid #           1
 GIGC_Chunk_Run: Received new grid IM, JM, LM =          15           9
          49
 =================================================
 W R F - G C   T I M E R S
    Domain           1 (Units: s)
 =================================================
  => Coupler Component                       5.441
   -- Physics & Parameterization             1.251
   -- Diagnostics Out                        0.000
  => GEOS-Chem Column                      213.344
  ===> Total Chemistry                     218.785
  => WRF                                  3000.378
  ===> Total WRF-GC                       3219.163
 max optd  1.9364301E+31
 max taucldi   2.136737    
 max taucldw  1.3416641E-07
 Switching is not necessary as we are already
 in the right domain!
 GIGC_Chunk_Run: Running for in-PET grid #           1
 GIGC_Chunk_Run: Received new grid IM, JM, LM =          15           9
          49
 =================================================
 W R F - G C   T I M E R S
    Domain           1 (Units: s)
 =================================================
  => Coupler Component                       5.484
   -- Physics & Parameterization             1.260
   -- Diagnostics Out                        0.000
  => GEOS-Chem Column                      214.386
  ===> Total Chemistry                     219.870
  => WRF                                  3018.798
  ===> Total WRF-GC                       3238.668
 max optd  1.9364301E+31
 max taucldi   2.182819    
 max taucldw  1.3591806E-07
 Switching is not necessary as we are already
 in the right domain!
 GIGC_Chunk_Run: Running for in-PET grid #           1
 GIGC_Chunk_Run: Received new grid IM, JM, LM =          15           9
          49
 =================================================
 W R F - G C   T I M E R S
    Domain           1 (Units: s)
 =================================================
  => Coupler Component                       5.521
   -- Physics & Parameterization             1.270
   -- Diagnostics Out                        0.000
  => GEOS-Chem Column                      215.447
  ===> Total Chemistry                     220.969
  => WRF                                  3037.198
  ===> Total WRF-GC                       3258.167
 max optd  1.9364301E+31
 max taucldi   2.203183    
 max taucldw  1.3761330E-07
 Switching is not necessary as we are already
 in the right domain!
 GIGC_Chunk_Run: Running for in-PET grid #           1
 GIGC_Chunk_Run: Received new grid IM, JM, LM =          15           9
          49
 =================================================
 W R F - G C   T I M E R S
    Domain           1 (Units: s)
 =================================================
  => Coupler Component                       5.566
   -- Physics & Parameterization             1.279
   -- Diagnostics Out                        0.000
  => GEOS-Chem Column                      216.487
  ===> Total Chemistry                     222.053
  => WRF                                  3055.733
  ===> Total WRF-GC                       3277.786
 max optd  1.9364301E+31
 max taucldi   2.256453    
 max taucldw  1.3918145E-07
 Switching is not necessary as we are already
 in the right domain!
 GIGC_Chunk_Run: Running for in-PET grid #           1
 GIGC_Chunk_Run: Received new grid IM, JM, LM =          15           9
          49
 =================================================
 W R F - G C   T I M E R S
    Domain           1 (Units: s)
 =================================================
  => Coupler Component                       5.609
   -- Physics & Parameterization             1.289
   -- Diagnostics Out                        0.000
  => GEOS-Chem Column                      217.537
  ===> Total Chemistry                     223.146
  => WRF                                  3074.329
  ===> Total WRF-GC                       3297.475
 max optd  1.9364301E+31
 max taucldi   2.345293    
 max taucldw  1.4080618E-07
 Switching is not necessary as we are already
 in the right domain!
 GIGC_Chunk_Run: Running for in-PET grid #           1
 GIGC_Chunk_Run: Received new grid IM, JM, LM =          15           9
          49
 =================================================
 W R F - G C   T I M E R S
    Domain           1 (Units: s)
 =================================================
  => Coupler Component                       5.647
   -- Physics & Parameterization             1.298
   -- Diagnostics Out                        0.000
  => GEOS-Chem Column                      218.592
  ===> Total Chemistry                     224.239
  => WRF                                  3092.993
  ===> Total WRF-GC                       3317.232
 max optd  1.9364301E+31
 max taucldi   2.219455    
 max taucldw  1.4243216E-07
 Switching is not necessary as we are already
 in the right domain!
 GIGC_Chunk_Run: Running for in-PET grid #           1
 GIGC_Chunk_Run: Received new grid IM, JM, LM =          15           9
          49
 =================================================
 W R F - G C   T I M E R S
    Domain           1 (Units: s)
 =================================================
  => Coupler Component                       5.685
   -- Physics & Parameterization             1.307
   -- Diagnostics Out                        0.000
  => GEOS-Chem Column                      219.647
  ===> Total Chemistry                     225.332
  => WRF                                  3111.907
  ===> Total WRF-GC                       3337.239
 max optd  1.9364301E+31
 max taucldi   2.248682    
 max taucldw  1.4411832E-07
 Switching is not necessary as we are already
 in the right domain!
 GIGC_Chunk_Run: Running for in-PET grid #           1
 GIGC_Chunk_Run: Received new grid IM, JM, LM =          15           9
          49
 =================================================
 W R F - G C   T I M E R S
    Domain           1 (Units: s)
 =================================================
  => Coupler Component                       5.724
   -- Physics & Parameterization             1.317
   -- Diagnostics Out                        0.000
  => GEOS-Chem Column                      220.687
  ===> Total Chemistry                     226.411
  => WRF                                  3130.702
  ===> Total WRF-GC                       3357.113
 max optd  1.9364301E+31
 max taucldi   2.285182    
 max taucldw  1.4577392E-07
 Switching is not necessary as we are already
 in the right domain!
 GIGC_Chunk_Run: Running for in-PET grid #           1
 GIGC_Chunk_Run: Received new grid IM, JM, LM =          15           9
          49
 =================================================
 W R F - G C   T I M E R S
    Domain           1 (Units: s)
 =================================================
  => Coupler Component                       5.759
   -- Physics & Parameterization             1.326
   -- Diagnostics Out                        0.000
  => GEOS-Chem Column                      221.716
  ===> Total Chemistry                     227.476
  => WRF                                  3149.489
  ===> Total WRF-GC                       3376.965
d01 2018-01-01_12:00:00 wrf: SUCCESS COMPLETE WRF
