taskid: 590 hostname: ip-172-31-2-117
Quilting with   1 groups of   0 I/O tasks.
 Ntasks in X           64 , ntasks in Y           72
--- WARNING: traj_opt is zero, but num_traj is not zero; setting num_traj to zero.
--- NOTE: sst_update is 0, setting io_form_auxinput4 = 0 and auxinput4_interval = 0 for all domains
--- NOTE: grid_fdda is 0 for domain      1, setting gfdda interval and ending time to 0 for that domain.
--- NOTE: both grid_sfdda and pxlsm_soil_nudge are 0 for domain      1, setting sgfdda interval and ending time to 0 for that domain.
--- NOTE: obs_nudge_opt is 0 for domain      1, setting obs nudging interval and ending time to 0 for that domain.
--- NOTE: bl_pbl_physics /= 4, implies mfshconv must be 0, resetting
Need MYNN PBL for icloud_bl = 1, resetting to 0
*************************************
No physics suite selected.
Physics options will be used directly from the namelist.
*************************************
--- NOTE: RRTMG radiation is in use, setting:  levsiz=59, alevsiz=12, no_src_types=6
--- NOTE: num_soil_layers has been set to      4
WRF V3.9.1.1 MODEL
 *************************************
 Parent domain
 ids,ide,jds,jde            1         950           1         650
 ims,ime,jms,jme          204         232          76          98
 ips,ipe,jps,jpe          211         225          83          91
 *************************************
DYNAMICS OPTION: Eulerian Mass Coordinate
   alloc_space_field: domain            1 ,              203623800  bytes allocated
  med_initialdata_input: calling input_input
Max map factor in domain 1 =  1.40. Scale the dt in the model accordingly.
INPUT LandUse = "USGS"
 LANDUSE TYPE = "USGS" FOUND          33  CATEGORIES           2  SEASONS WATER CATEGORY =           16  SNOW CATEGORY =           24
INITIALIZE THREE Noah LSM RELATED TABLES
*****************************************************************
  __          _______  ______       _____  _____ _    _ _____
  \ \        / /  __ \|  ____|     / ____|/ ____| |  | |  __ \
   \ \  /\  / /| |__) | |__ ______| |  __| |    | |__| | |__) |
    \ \/  \/ / |  _  /|  __|______| | |_ | |    |  __  |  ___/
     \  /\  /  | | \ \| |         | |__| | |____| |  | | |
      \/  \/   |_|  \_\_|          \_____|\_____|_|  |_|_|
*****************************************************************
         WRF-GC MODEL, VERSION 1811.11 - WRF BINDINGS
 For errors, suggestions & feedback email linhaipeng@pku.edu.cn
*****************************************************************
    This is domain            1
 ### GIGC_Stateful_Mod: Root CPU, after READ_INPUT_FILE
  Linoz Data:  O3 climatology :                  z*=10, 12, ..., 58                             2.700E-08 1.083E-05
  Linoz Data:  Temperature climatology :         z*=10, 12, ..., 58                             1.859E+02 2.904E+02
  Linoz Data:  Column O3 above box climalology : z*=10, 12, ..., 58                             7.538E-02 3.770E+02
  Linoz Data:  P-L O3 climatology (mr/s):        z*=10, 12, ..., 58                            -1.590E-10 2.835E-11
  Linoz Data:  d(P-L)/dO3 (1/s) :                z*=10, 12, ..., 58                            -8.386E-04 7.556E-09
  Linoz Data:  d(P-L)/dT (mr/K) :                z*=10, 12, ..., 58                            -5.742E-12 4.615E-14
  Linoz Data:  d(P-L)/d(column O3) (mr/DU) :     z*=10, 12, ..., 58                            -1.921E-12 5.038E-10
 ### GIGC_Stateful_Mod: Root CPU, after LINOZ_READ
 %%%%%%%%% GIGC IN-PET GRID SWITCHING HACKS %%%%%%%%%
     (Not very) Proudly brought to you by hplin      
 Some debug information:
 ID:           1
 IM, JM, LM:          15           9          49  will be set as PAR
 Allocs: CMN T GC F
 RC at entry-point:           0
 %%%%%%%%%%%%%%%%%%%%%%%%%%%%%%%%%%%%%%%%%%%%%%%%%%%%
 No need to switch HcoState for ID           1
 Exit RC:            0
 %%%%%%%%%    FINISHED GIGC_Switch_Dims    %%%%%%%%%
 GIGC_Chunk_Init: Received new grid IM, JM, LM =          15           9
          49
     ### GIGC_INIT_SIMULATION: after Input_Opt% setups
     ### GIGC_INIT_SIMULATION: after GC_Init_All
     ### GIGC_INIT_SIMULATION: after GC_Init_Extra
     ### GIGC_INIT_SIMULATION: after INIT_FJX
 # GIGC_CHUNK_MOD: after SV save, ID =           1
 WRFGC chemics_init: Following information regarding Input_Opt% (for all doms)
 After domain           1
 HPC:  T
 LPRT:  F
 DoConv:  T
 DoDryDep:  T
 DoEmis:  T
 DoChem:  T
 DoTurb:  T
 DoWetDep:  T

 tropopause_init: DONE intialized domain            1

 mediation_integrate: med_read_wrf_chem_emissions: Open file wrfchemi_00z_d01
 HOURLY EMISSIONS UPDATE TIME        0.0       0.0
mediation_integrate: med_read_wrf_chem_emissions: Read emissions for time 2018-01-01_00:00:00
open_aux_u : error opening wrffirechemi_d01_2018-01-01_00:00:00 for reading. 100
open_aux_u : error opening wrfchemi_gocart_bg_d01 for reading. 100
d01 2018-01-01_00:00:00 Input data processed for aux input   8 for domain   1
open_aux_u : error opening wrfchemv_d01 for reading. 100
 Tile Strategy is not specified. Assuming 1D-Y
WRF TILE   1 IS    211 IE    225 JS     83 JE     91
WRF NUMBER OF TILES =   1
 max optd  3.3547268E+12
 max taucldi  0.0000000E+00
 max taucldw  0.0000000E+00
 =================================================
 W R F - G C   T I M E R S
    Domain           1 (Units: s)
 =================================================
  => Coupler Component                       0.031
   -- Physics & Parameterization             0.001
   -- Diagnostics Out                        0.000
  => GEOS-Chem Column                        0.000
  ===> Total Chemistry                       0.031
  => WRF                                     0.000
  ===> Total WRF-GC                          0.031
 max optd  3.3547268E+12
 max taucldi  1.0000007E-14
 max taucldw  1.0000007E-14
 %%%%%%%%% GIGC IN-PET GRID SWITCHING HACKS %%%%%%%%%
     (Not very) Proudly brought to you by hplin      
 Some debug information:
 ID:           1
 IM, JM, LM:          15           9          49  will be set as PAR
 Allocs: CMN T GC T
 RC at entry-point:           0
 %%%%%%%%%%%%%%%%%%%%%%%%%%%%%%%%%%%%%%%%%%%%%%%%%%%%
 No need to switch HcoState for ID           1
 Debug HcoState nSpc, NX, NY, NZ         163          15           9          49
 Exit RC:            0
 %%%%%%%%%    FINISHED GIGC_Switch_Dims    %%%%%%%%%
 GIGC_Chunk_Run: Running for in-PET grid #           1
 GIGC_Chunk_Run: Received new grid IM, JM, LM =          15           9
          49
HEMCO: Opening /fsx/HEMCO/BIOFUEL/v2014-07/biofuel.geos.4x5.nc
HEMCO: Opening /fsx/HEMCO/BROMINE/v2015-02/Bromocarb_Liang2010.nc
HEMCO: Opening /fsx/HEMCO/ACET/v2014-07/ACET_seawater.generic.1x1.nc
HEMCO: Opening /fsx/HEMCO/SOILNOX/v2014-07/DepReservoirDefault.nc
HEMCO: Opening /fsx/HEMCO/SOILNOX/v2014-07/soilNOx.landtype.generic.025x025.1L.nc
HEMCO: Opening /fsx/HEMCO/SOILNOX/v2014-07/soilNOx.climate.generic.05x05.nc
HEMCO: Opening /fsx/HEMCO/DUST_DEAD/v2014-07/dst_tibds.geos.4x5.nc
HEMCO: Opening /fsx/HEMCO/DUST_DEAD/v2014-07/GOCART_src_fn.geos.4x5.nc
HEMCO: Opening /fsx/HEMCO/MEGAN/v2018-05/MEGAN2.1_EF.geos.025x03125.nc
HEMCO: Opening /fsx/HEMCO/MEGAN/v2017-07/CLM4_PFT.geos.025x03125.nc
HEMCO: Opening /fsx/HEMCO/TIMEZONES/v2015-02/timezones_voronoi_1x1.nc
HEMCO: Opening /fsx/HEMCO/STRAT/v2015-01/Bry/GEOSCCM_Bry.200701.day.nc
HEMCO: Opening /fsx/HEMCO/STRAT/v2015-01/Bry/GEOSCCM_Bry.200701.night.nc
HEMCO: Opening /fsx/HEMCO/OMOC/v2018-01/OMOC.DJF.01x01.nc
HEMCO: Opening /fsx/HEMCO/OMOC/v2018-01/OMOC.MAM.01x01.nc
HEMCO: Opening /fsx/HEMCO/OMOC/v2018-01/OMOC.JJA.01x01.nc
HEMCO: Opening /fsx/HEMCO/OMOC/v2018-01/OMOC.SON.01x01.nc
HEMCO: Opening /fsx/HEMCO/AnnualScalar/v2014-07/AnnualScalar.geos.1x1.nc
HEMCO: Opening /fsx/HEMCO/EDGARv42/v2015-02/NO/EDGAR_hourly_NOxScal.nc
HEMCO: Opening /fsx/HEMCO/MASKS/v2018-09/EMEP_mask.geos.1x1.20151222.nc
HEMCO: Opening /fsx/HEMCO/MASKS/v2018-09/Canada_mask.geos.1x1.nc
HEMCO: Opening /fsx/HEMCO/MASKS/v2018-09/SE_Asia_mask.generic.1x1.nc
HEMCO: Opening /fsx/HEMCO/MASKS/v2018-09/MIX_Asia_mask.generic.025x025.nc
HEMCO: Opening /fsx/HEMCO/MASKS/v2018-09/CONUS_Mask.01x01.nc
HEMCO: Opening /fsx/HEMCO/MASKS/v2018-09/AF_LANDMASK.geos.05x0666.global.nc
HEMCO: Opening /fsx/HEMCO/MASKS/v2018-09/China_mask.generic.1x1.nc
HEMCO: Opening /fsx/HEMCO/MASKS/v2018-09/India_mask.generic.1x1.nc
HEMCO: Opening /fsx/HEMCO/AnnualScalar/v2014-07/AnnualScalar.geos.1x1.nc
HEMCO: Opening /fsx/HEMCO/NH3/v2014-07/NH3_geos.4x5.nc
HEMCO: Opening /fsx/HEMCO/NH3/v2018-04/NH3_Arctic_seabirds.nc
HEMCO: Opening /fsx/HEMCO/CEDS/v2018-08/2014/NO-em-anthro_CMIP_CEDS_2014.nc
HEMCO: Opening /fsx/HEMCO/CEDS/v2018-08/2014/CO-em-anthro_CMIP_CEDS_2014.nc
HEMCO: Opening /fsx/HEMCO/CEDS/v2018-08/2014/SO2-em-anthro_CMIP_CEDS_2014.nc
HEMCO: Opening /fsx/HEMCO/CEDS/v2018-08/2014/NH3-em-anthro_CMIP_CEDS_2014.nc
HEMCO: Opening /fsx/HEMCO/CEDS/v2018-08/2014/BC-em-anthro_CMIP_CEDS_2014.nc
HEMCO: Opening /fsx/HEMCO/CEDS/v2018-08/2014/OC-em-anthro_CMIP_CEDS_2014.nc
HEMCO: Opening /fsx/HEMCO/CEDS/v2018-08/2014/EOH-em-anthro_CMIP_CEDS_2014.nc
HEMCO: Opening /fsx/HEMCO/CEDS/v2018-08/2014/C2H6-em-anthro_CMIP_CEDS_2014.nc
HEMCO: Opening /fsx/HEMCO/CEDS/v2018-08/2014/C3H8-em-anthro_CMIP_CEDS_2014.nc
HEMCO: Opening /fsx/HEMCO/CEDS/v2018-08/2014/ALK4_butanes-em-anthro_CMIP_CEDS_2014.nc
HEMCO: Opening /fsx/HEMCO/CEDS/v2018-08/2014/ALK4_pentanes-em-anthro_CMIP_CEDS_2014.nc
HEMCO: Opening /fsx/HEMCO/CEDS/v2018-08/2014/ALK4_hexanes-em-anthro_CMIP_CEDS_2014.nc
HEMCO: Opening /fsx/HEMCO/CEDS/v2018-08/2014/PRPE-em-anthro_CMIP_CEDS_2014.nc
HEMCO: Opening /fsx/HEMCO/CEDS/v2018-08/2014/BENZ-em-anthro_CMIP_CEDS_2014.nc
HEMCO: Opening /fsx/HEMCO/CEDS/v2018-08/2014/TOLU-em-anthro_CMIP_CEDS_2014.nc
HEMCO: Opening /fsx/HEMCO/CEDS/v2018-08/2014/XYLE-em-anthro_CMIP_CEDS_2014.nc
HEMCO: Opening /fsx/HEMCO/CEDS/v2018-08/2014/CH2O-em-anthro_CMIP_CEDS_2014.nc
HEMCO: Opening /fsx/HEMCO/CEDS/v2018-08/2014/ALD2-em-anthro_CMIP_CEDS_2014.nc
HEMCO: Opening /fsx/HEMCO/CEDS/v2018-08/2014/MEK-em-anthro_CMIP_CEDS_2014.nc
HEMCO: Opening /fsx/HEMCO/CEDS/v2018-08/2014/HCOOH-em-anthro_CMIP_CEDS_2014.nc
HEMCO: Opening /fsx/HEMCO/C2H6_2010/v2017-05/C2H6_global_anth_biof.201001.nc
HEMCO: Opening /fsx/HEMCO/NEI2011/v2017-02-MM/01/NEI11_0.1x0.1_201101_monmean.nc
HEMCO: Opening /fsx/HEMCO/NEI2011/v2017-02-MM/01/NEI11_0.1x0.1_201101_monmean_egu.nc
HEMCO: Opening /fsx/HEMCO/NEI2011/v2017-02-MM/01/NEI11_0.1x0.1_201101_monmean_egupk.nc
HEMCO: Opening /fsx/HEMCO/NEI2011/v2017-02-MM/01/NEI11_0.1x0.1_201101_monmean_oilgas.nc
HEMCO: Opening /fsx/HEMCO/NEI2011/v2017-02-MM/01/NEI11_0.1x0.1_201101_monmean_othpt.nc
HEMCO: Opening /fsx/HEMCO/NEI2011/v2017-02-MM/01/NEI11_0.1x0.1_201101_monmean_ptnonipm.nc
HEMCO: Opening /fsx/HEMCO/IODINE/v2017-09/CH3I_monthly_emissions_Ordonez_2012_COARDS.nc
HEMCO: Opening /fsx/HEMCO/IODINE/v2017-09/CH2I2_monthly_emissions_Ordonez_2012_COARDS.nc
HEMCO: Opening /fsx/HEMCO/IODINE/v2017-09/CH2ICl_monthly_emissions_Ordonez_2012_COARDS.nc
HEMCO: Opening /fsx/HEMCO/IODINE/v2017-09/CH2IBr_monthly_emissions_Ordonez_2012_COARDS.nc
HEMCO: Opening /fsx/HEMCO/CEDS/v2018-08/2014/CO-em-anthro_CMIP_CEDS_2014.nc
HEMCO: Opening /fsx/HEMCO/CEDS/v2018-08/2014/SO2-em-anthro_CMIP_CEDS_2014.nc
HEMCO: Opening /fsx/HEMCO/CEDS/v2018-08/2014/NH3-em-anthro_CMIP_CEDS_2014.nc
HEMCO: Opening /fsx/HEMCO/CEDS/v2018-08/2014/BC-em-anthro_CMIP_CEDS_2014.nc
HEMCO: Opening /fsx/HEMCO/CEDS/v2018-08/2014/OC-em-anthro_CMIP_CEDS_2014.nc
HEMCO: Opening /fsx/HEMCO/CEDS/v2018-08/2014/EOH-em-anthro_CMIP_CEDS_2014.nc
HEMCO: Opening /fsx/HEMCO/CEDS/v2018-08/2014/C2H6-em-anthro_CMIP_CEDS_2014.nc
HEMCO: Opening /fsx/HEMCO/CEDS/v2018-08/2014/C3H8-em-anthro_CMIP_CEDS_2014.nc
HEMCO: Opening /fsx/HEMCO/CEDS/v2018-08/2014/ALK4_butanes-em-anthro_CMIP_CEDS_2014.nc
HEMCO: Opening /fsx/HEMCO/CEDS/v2018-08/2014/ALK4_pentanes-em-anthro_CMIP_CEDS_2014.nc
HEMCO: Opening /fsx/HEMCO/CEDS/v2018-08/2014/ALK4_hexanes-em-anthro_CMIP_CEDS_2014.nc
HEMCO: Opening /fsx/HEMCO/CEDS/v2018-08/2014/PRPE-em-anthro_CMIP_CEDS_2014.nc
HEMCO: Opening /fsx/HEMCO/CEDS/v2018-08/2014/BENZ-em-anthro_CMIP_CEDS_2014.nc
HEMCO: Opening /fsx/HEMCO/CEDS/v2018-08/2014/TOLU-em-anthro_CMIP_CEDS_2014.nc
HEMCO: Opening /fsx/HEMCO/CEDS/v2018-08/2014/XYLE-em-anthro_CMIP_CEDS_2014.nc
HEMCO: Opening /fsx/HEMCO/CEDS/v2018-08/2014/CH2O-em-anthro_CMIP_CEDS_2014.nc
HEMCO: Opening /fsx/HEMCO/CEDS/v2018-08/2014/ALD2-em-anthro_CMIP_CEDS_2014.nc
HEMCO: Opening /fsx/HEMCO/CEDS/v2018-08/2014/MEK-em-anthro_CMIP_CEDS_2014.nc
HEMCO: Opening /fsx/HEMCO/CEDS/v2018-08/2014/HCOOH-em-anthro_CMIP_CEDS_2014.nc
HEMCO: Opening /fsx/HEMCO/CEDS/v2018-08/2014/NO-em-anthro_CMIP_CEDS_2014.nc
HEMCO: Opening /fsx/HEMCO/AEIC/v2015-01/AEIC.47L.gen.1x1.nc
HEMCO: Opening /fsx/HEMCO/ALD2/v2017-03/resp.geos.2x25.nc
HEMCO: Opening /fsx/HEMCO/DMS/v2015-07/DMS_lana.geos.1x1.nc
HEMCO: Opening /fsx/HEMCO/ALD2/v2017-03/ALD2_seawater.geos.2x25.nc
HEMCO: Opening /fsx/HEMCO/DUST_DEAD/v2014-07/dst_tvbds.geos.4x5.nc
HEMCO: Opening /fsx/HEMCO/DUST_DEAD/v2018-04/PM25FINE_ECLIPSE_2015.geos.2x25.nc
HEMCO: Opening /fsx/HEMCO/SOA/v2014-07/NVOC.geos.1x1.nc
HEMCO: Opening /fsx/HEMCO/GFED4/v2015-10/2016/GFED4_gen.025x025.201601.nc
HEMCO: Opening /fsx/HEMCO/UVALBEDO/v2015-03/uvalbedo.geos.2x25.nc
HEMCO: Opening /fsx/HEMCO/GMI/v2015-02/gmi.clim.ACET.geos5.2x25.nc
HEMCO: Opening /fsx/HEMCO/GMI/v2015-02/gmi.clim.ACTA.geos5.2x25.nc
HEMCO: Opening /fsx/HEMCO/GMI/v2015-02/gmi.clim.ALD2.geos5.2x25.nc
HEMCO: Opening /fsx/HEMCO/GMI/v2015-02/gmi.clim.ALK4.geos5.2x25.nc
HEMCO: Opening /fsx/HEMCO/GMI/v2015-02/gmi.clim.C2H6.geos5.2x25.nc
HEMCO: Opening /fsx/HEMCO/GMI/v2015-02/gmi.clim.C3H8.geos5.2x25.nc
HEMCO: Opening /fsx/HEMCO/GMI/v2015-02/gmi.clim.CCl4.geos5.2x25.nc
HEMCO: Opening /fsx/HEMCO/GMI/v2015-02/gmi.clim.CF2Cl2.geos5.2x25.nc
HEMCO: Opening /fsx/HEMCO/GMI/v2015-02/gmi.clim.CF2ClBr.geos5.2x25.nc
HEMCO: Opening /fsx/HEMCO/GMI/v2015-02/gmi.clim.CFC113.geos5.2x25.nc
HEMCO: Opening /fsx/HEMCO/GMI/v2015-02/gmi.clim.CFC114.geos5.2x25.nc
HEMCO: Opening /fsx/HEMCO/GMI/v2015-02/gmi.clim.CFC115.geos5.2x25.nc
HEMCO: Opening /fsx/HEMCO/GMI/v2015-02/gmi.clim.CFCl3.geos5.2x25.nc
HEMCO: Opening /fsx/HEMCO/GMI/v2015-02/gmi.clim.CH2O.geos5.2x25.nc
HEMCO: Opening /fsx/HEMCO/GMI/v2015-02/gmi.clim.CH3CCl3.geos5.2x25.nc
HEMCO: Opening /fsx/HEMCO/GMI/v2015-02/gmi.clim.CH3Cl.geos5.2x25.nc
HEMCO: Opening /fsx/HEMCO/GMI/v2015-02/gmi.clim.CH4.geos5.2x25.nc
HEMCO: Opening /fsx/HEMCO/GMI/v2015-02/gmi.clim.CO.geos5.2x25.nc
HEMCO: Opening /fsx/HEMCO/GMI/v2015-02/gmi.clim.Cl.geos5.2x25.nc
HEMCO: Opening /fsx/HEMCO/GMI/v2015-02/gmi.clim.Cl2.geos5.2x25.nc
HEMCO: Opening /fsx/HEMCO/GMI/v2015-02/gmi.clim.Cl2O2.geos5.2x25.nc
HEMCO: Opening /fsx/HEMCO/GMI/v2015-02/gmi.clim.ClO.geos5.2x25.nc
HEMCO: Opening /fsx/HEMCO/GMI/v2015-02/gmi.clim.EOH.geos5.2x25.nc
HEMCO: Opening /fsx/HEMCO/GMI/v2015-02/gmi.clim.GLYC.geos5.2x25.nc
HEMCO: Opening /fsx/HEMCO/GMI/v2015-02/gmi.clim.GLYX.geos5.2x25.nc
HEMCO: Opening /fsx/HEMCO/GMI/v2015-02/gmi.clim.H2402.geos5.2x25.nc
HEMCO: Opening /fsx/HEMCO/GMI/v2015-02/gmi.clim.H2O.geos5.2x25.nc
HEMCO: Opening /fsx/HEMCO/GMI/v2015-02/gmi.clim.H2O2.geos5.2x25.nc
HEMCO: Opening /fsx/HEMCO/GMI/v2015-02/gmi.clim.HAC.geos5.2x25.nc
HEMCO: Opening /fsx/HEMCO/GMI/v2015-02/gmi.clim.HCFC141b.geos5.2x25.nc
HEMCO: Opening /fsx/HEMCO/GMI/v2015-02/gmi.clim.HCFC142b.geos5.2x25.nc
HEMCO: Opening /fsx/HEMCO/GMI/v2015-02/gmi.clim.HCFC22.geos5.2x25.nc
HEMCO: Opening /fsx/HEMCO/GMI/v2015-02/gmi.clim.HCOOH.geos5.2x25.20170108.nc
HEMCO: Opening /fsx/HEMCO/GMI/v2015-02/gmi.clim.HCl.geos5.2x25.nc
HEMCO: Opening /fsx/HEMCO/GMI/v2015-02/gmi.clim.HNO2.geos5.2x25.nc
HEMCO: Opening /fsx/HEMCO/GMI/v2015-02/gmi.clim.HNO3.geos5.2x25.nc
HEMCO: Opening /fsx/HEMCO/GMI/v2015-02/gmi.clim.HNO4.geos5.2x25.nc
HEMCO: Opening /fsx/HEMCO/GMI/v2015-02/gmi.clim.HOCl.geos5.2x25.nc
HEMCO: Opening /fsx/HEMCO/GMI/v2015-02/gmi.clim.ISN1.geos5.2x25.nc
HEMCO: Opening /fsx/HEMCO/GMI/v2015-02/gmi.clim.ISOP.geos5.2x25.nc
HEMCO: Opening /fsx/HEMCO/GMI/v2015-02/gmi.clim.MACR.geos5.2x25.nc
HEMCO: Opening /fsx/HEMCO/GMI/v2015-02/gmi.clim.MAP.geos5.2x25.nc
HEMCO: Opening /fsx/HEMCO/GMI/v2015-02/gmi.clim.MEK.geos5.2x25.nc
HEMCO: Opening /fsx/HEMCO/GMI/v2015-02/gmi.clim.MGLY.geos5.2x25.nc
HEMCO: Opening /fsx/HEMCO/GMI/v2015-02/gmi.clim.MP.geos5.2x25.nc
HEMCO: Opening /fsx/HEMCO/GMI/v2015-02/gmi.clim.MVK.geos5.2x25.nc
HEMCO: Opening /fsx/HEMCO/GMI/v2015-02/gmi.clim.N2O.geos5.2x25.nc
HEMCO: Opening /fsx/HEMCO/GMI/v2015-02/gmi.clim.N2O5.geos5.2x25.nc
HEMCO: Opening /fsx/HEMCO/GMI/v2015-02/gmi.clim.NO.geos5.2x25.nc
HEMCO: Opening /fsx/HEMCO/GMI/v2015-02/gmi.clim.NO2.geos5.2x25.nc
HEMCO: Opening /fsx/HEMCO/GMI/v2015-02/gmi.clim.NO3.geos5.2x25.nc
HEMCO: Opening /fsx/HEMCO/GMI/v2015-02/gmi.clim.O3.geos5.2x25.nc
HEMCO: Opening /fsx/HEMCO/GMI/v2015-02/gmi.clim.OClO.geos5.2x25.nc
HEMCO: Opening /fsx/HEMCO/GMI/v2015-02/gmi.clim.PAN.geos5.2x25.nc
HEMCO: Opening /fsx/HEMCO/GMI/v2015-02/gmi.clim.NPMN.geos5.2x25.nc
HEMCO: Opening /fsx/HEMCO/GMI/v2015-02/gmi.clim.IPMN.geos5.2x25.nc
HEMCO: Opening /fsx/HEMCO/GMI/v2015-02/gmi.clim.PPN.geos5.2x25.nc
HEMCO: Opening /fsx/HEMCO/GMI/v2015-02/gmi.clim.PRPE.geos5.2x25.nc
HEMCO: Opening /fsx/HEMCO/GMI/v2015-02/gmi.clim.R4N2.geos5.2x25.nc
HEMCO: Opening /fsx/HEMCO/GMI/v2015-02/gmi.clim.RCHO.geos5.2x25.nc
HEMCO: Opening /fsx/HEMCO/GMI/v2015-02/gmi.clim.RIPA.geos5.2x25.nc
HEMCO: Opening /fsx/HEMCO/GMI/v2015-02/gmi.clim.RIPB.geos5.2x25.nc
HEMCO: Opening /fsx/HEMCO/GMI/v2015-02/gmi.clim.RIPD.geos5.2x25.nc
HEMCO: Opening /fsx/HEMCO/GMI/v2015-02/gmi.clim.OH.geos5.2x25.nc
HEMCO: Opening /fsx/HEMCO/NOAA_GMD/v2018-01/monthly.gridded.surface.methane.1979-2020.1x1.nc
HEMCO: Opening /fsx/HEMCO/GEIA/v2014-07/GEIA_monthscal.generic.1x1.nc
HEMCO: Opening /fsx/HEMCO/EMEP/v2015-03/EMEP.Seasonal.geos.1x1.nc
HEMCO: Opening /fsx/HEMCO/BROMINE/v2015-02/BromoCarb_Season.nc
HEMCO: Opening /fsx/HEMCO/EDGARv43/v2016-11/EDGAR_v43.Seasonal.1x1.nc
HEMCO: Opening /fsx/HEMCO/NEI2005/v2014-09/scaling/NEI99.dow.geos.1x1.nc
HEMCO: Opening /fsx/HEMCO/VOLCANO/v2015-02/2009/volc_so2_gen.1x1.47L.200901.nc
HEMCO: Opening /fsx/HEMCO/SOILNOX/v2014-07/soilNOx.fert_res.generic.05x05.nc
 vdinti: pbl height will be limited to bottom           25  model levels. top is
     431.250100000000       hpa
 =================================================
 W R F - G C   T I M E R S
    Domain           1 (Units: s)
 =================================================
  => Coupler Component                       0.058
   -- Physics & Parameterization             0.010
   -- Diagnostics Out                        0.000
  => GEOS-Chem Column                      132.815
  ===> Total Chemistry                     132.873
  => WRF                                    17.287
  ===> Total WRF-GC                        150.160
 max optd  1.9364301E+31
 max taucldi  1.0690862E-06
 max taucldw  1.3286860E-06
 Switching is not necessary as we are already
 in the right domain!
 GIGC_Chunk_Run: Running for in-PET grid #           1
 GIGC_Chunk_Run: Received new grid IM, JM, LM =          15           9
          49
 =================================================
 W R F - G C   T I M E R S
    Domain           1 (Units: s)
 =================================================
  => Coupler Component                       0.086
   -- Physics & Parameterization             0.019
   -- Diagnostics Out                        0.000
  => GEOS-Chem Column                      135.494
  ===> Total Chemistry                     135.580
  => WRF                                    58.073
  ===> Total WRF-GC                        193.653
 max optd  1.9364301E+31
 max taucldi  2.1177834E-06
 max taucldw  2.6572627E-06
 Switching is not necessary as we are already
 in the right domain!
 GIGC_Chunk_Run: Running for in-PET grid #           1
 GIGC_Chunk_Run: Received new grid IM, JM, LM =          15           9
          49
 =================================================
 W R F - G C   T I M E R S
    Domain           1 (Units: s)
 =================================================
  => Coupler Component                       0.117
   -- Physics & Parameterization             0.028
   -- Diagnostics Out                        0.000
  => GEOS-Chem Column                      136.964
  ===> Total Chemistry                     137.081
  => WRF                                    77.252
  ===> Total WRF-GC                        214.333
 max optd  1.9364301E+31
 max taucldi  3.1477668E-06
 max taucldw  3.9848223E-06
 Switching is not necessary as we are already
 in the right domain!
 GIGC_Chunk_Run: Running for in-PET grid #           1
 GIGC_Chunk_Run: Received new grid IM, JM, LM =          15           9
          49
 =================================================
 W R F - G C   T I M E R S
    Domain           1 (Units: s)
 =================================================
  => Coupler Component                       0.148
   -- Physics & Parameterization             0.037
   -- Diagnostics Out                        0.000
  => GEOS-Chem Column                      138.212
  ===> Total Chemistry                     138.360
  => WRF                                    95.862
  ===> Total WRF-GC                        234.222
 max optd  1.9364301E+31
 max taucldi  4.0134605E-06
 max taucldw  5.2185878E-06
 Switching is not necessary as we are already
 in the right domain!
 GIGC_Chunk_Run: Running for in-PET grid #           1
 GIGC_Chunk_Run: Received new grid IM, JM, LM =          15           9
          49
 =================================================
 W R F - G C   T I M E R S
    Domain           1 (Units: s)
 =================================================
  => Coupler Component                       0.185
   -- Physics & Parameterization             0.046
   -- Diagnostics Out                        0.000
  => GEOS-Chem Column                      139.418
  ===> Total Chemistry                     139.603
  => WRF                                   114.256
  ===> Total WRF-GC                        253.859
 max optd  1.9364301E+31
 max taucldi  4.9576802E-06
 max taucldw  6.4631463E-06
 Switching is not necessary as we are already
 in the right domain!
 GIGC_Chunk_Run: Running for in-PET grid #           1
 GIGC_Chunk_Run: Received new grid IM, JM, LM =          15           9
          49
 =================================================
 W R F - G C   T I M E R S
    Domain           1 (Units: s)
 =================================================
  => Coupler Component                       0.223
   -- Physics & Parameterization             0.054
   -- Diagnostics Out                        0.000
  => GEOS-Chem Column                      140.611
  ===> Total Chemistry                     140.834
  => WRF                                   132.543
  ===> Total WRF-GC                        273.377
 max optd  1.9364301E+31
 max taucldi  6.2287454E-06
 max taucldw  7.7288232E-06
 Switching is not necessary as we are already
 in the right domain!
 GIGC_Chunk_Run: Running for in-PET grid #           1
 GIGC_Chunk_Run: Received new grid IM, JM, LM =          15           9
          49
 =================================================
 W R F - G C   T I M E R S
    Domain           1 (Units: s)
 =================================================
  => Coupler Component                       0.261
   -- Physics & Parameterization             0.063
   -- Diagnostics Out                        0.000
  => GEOS-Chem Column                      141.800
  ===> Total Chemistry                     142.062
  => WRF                                   150.856
  ===> Total WRF-GC                        292.918
 max optd  1.9364301E+31
 max taucldi  7.3708529E-06
 max taucldw  8.9872374E-06
 Switching is not necessary as we are already
 in the right domain!
 GIGC_Chunk_Run: Running for in-PET grid #           1
 GIGC_Chunk_Run: Received new grid IM, JM, LM =          15           9
          49
 =================================================
 W R F - G C   T I M E R S
    Domain           1 (Units: s)
 =================================================
  => Coupler Component                       0.300
   -- Physics & Parameterization             0.072
   -- Diagnostics Out                        0.000
  => GEOS-Chem Column                      142.969
  ===> Total Chemistry                     143.269
  => WRF                                   169.095
  ===> Total WRF-GC                        312.363
 max optd  1.9364301E+31
 max taucldi  8.4005251E-06
 max taucldw  1.0292748E-05
 Switching is not necessary as we are already
 in the right domain!
 GIGC_Chunk_Run: Running for in-PET grid #           1
 GIGC_Chunk_Run: Received new grid IM, JM, LM =          15           9
          49
 =================================================
 W R F - G C   T I M E R S
    Domain           1 (Units: s)
 =================================================
  => Coupler Component                       0.344
   -- Physics & Parameterization             0.081
   -- Diagnostics Out                        0.000
  => GEOS-Chem Column                      144.142
  ===> Total Chemistry                     144.485
  => WRF                                   187.362
  ===> Total WRF-GC                        331.848
 max optd  1.9364301E+31
 max taucldi  9.2976543E-06
 max taucldw  1.1646003E-05
 Switching is not necessary as we are already
 in the right domain!
 GIGC_Chunk_Run: Running for in-PET grid #           1
 GIGC_Chunk_Run: Received new grid IM, JM, LM =          15           9
          49
 =================================================
 W R F - G C   T I M E R S
    Domain           1 (Units: s)
 =================================================
  => Coupler Component                       0.379
   -- Physics & Parameterization             0.091
   -- Diagnostics Out                        0.000
  => GEOS-Chem Column                      145.304
  ===> Total Chemistry                     145.682
  => WRF                                   205.661
  ===> Total WRF-GC                        351.343
 max optd  1.9364301E+31
 max taucldi  1.0287386E-05
 max taucldw  1.3039704E-05
 Switching is not necessary as we are already
 in the right domain!
 GIGC_Chunk_Run: Running for in-PET grid #           1
 GIGC_Chunk_Run: Received new grid IM, JM, LM =          15           9
          49
 =================================================
 W R F - G C   T I M E R S
    Domain           1 (Units: s)
 =================================================
  => Coupler Component                       0.415
   -- Physics & Parameterization             0.100
   -- Diagnostics Out                        0.000
  => GEOS-Chem Column                      146.454
  ===> Total Chemistry                     146.869
  => WRF                                   223.913
  ===> Total WRF-GC                        370.782
 max optd  1.9364301E+31
 max taucldi  1.1212801E-05
 max taucldw  1.4451726E-05
 Switching is not necessary as we are already
 in the right domain!
 GIGC_Chunk_Run: Running for in-PET grid #           1
 GIGC_Chunk_Run: Received new grid IM, JM, LM =          15           9
          49
 =================================================
 W R F - G C   T I M E R S
    Domain           1 (Units: s)
 =================================================
  => Coupler Component                       0.447
   -- Physics & Parameterization             0.109
   -- Diagnostics Out                        0.000
  => GEOS-Chem Column                      147.584
  ===> Total Chemistry                     148.032
  => WRF                                   242.056
  ===> Total WRF-GC                        390.088
 HOURLY EMISSIONS UPDATE TIME     3600.0       0.0
mediation_integrate: med_read_wrf_chem_emissions: Read emissions for time 2018-01-01_01:00:00
 max optd  1.9364301E+31
 max taucldi  1.2017160E-05
 max taucldw  1.5839611E-05
 Switching is not necessary as we are already
 in the right domain!
 GIGC_Chunk_Run: Running for in-PET grid #           1
 GIGC_Chunk_Run: Received new grid IM, JM, LM =          15           9
          49
 =================================================
 W R F - G C   T I M E R S
    Domain           1 (Units: s)
 =================================================
  => Coupler Component                       0.479
   -- Physics & Parameterization             0.117
   -- Diagnostics Out                        0.000
  => GEOS-Chem Column                      148.729
  ===> Total Chemistry                     149.207
  => WRF                                   260.309
  ===> Total WRF-GC                        409.516
 max optd  1.9364301E+31
 max taucldi  1.2722523E-05
 max taucldw  1.7170836E-05
 Switching is not necessary as we are already
 in the right domain!
 GIGC_Chunk_Run: Running for in-PET grid #           1
 GIGC_Chunk_Run: Received new grid IM, JM, LM =          15           9
          49
 =================================================
 W R F - G C   T I M E R S
    Domain           1 (Units: s)
 =================================================
  => Coupler Component                       0.510
   -- Physics & Parameterization             0.126
   -- Diagnostics Out                        0.000
  => GEOS-Chem Column                      149.863
  ===> Total Chemistry                     150.373
  => WRF                                   278.539
  ===> Total WRF-GC                        428.912
 max optd  1.9364301E+31
 max taucldi  1.3373494E-05
 max taucldw  1.8392357E-05
 Switching is not necessary as we are already
 in the right domain!
 GIGC_Chunk_Run: Running for in-PET grid #           1
 GIGC_Chunk_Run: Received new grid IM, JM, LM =          15           9
          49
 =================================================
 W R F - G C   T I M E R S
    Domain           1 (Units: s)
 =================================================
  => Coupler Component                       0.543
   -- Physics & Parameterization             0.135
   -- Diagnostics Out                        0.000
  => GEOS-Chem Column                      150.897
  ===> Total Chemistry                     151.440
  => WRF                                   296.645
  ===> Total WRF-GC                        448.085
 max optd  1.9364301E+31
 max taucldi  1.4016652E-05
 max taucldw  1.9475006E-05
 Switching is not necessary as we are already
 in the right domain!
 GIGC_Chunk_Run: Running for in-PET grid #           1
 GIGC_Chunk_Run: Received new grid IM, JM, LM =          15           9
          49
 =================================================
 W R F - G C   T I M E R S
    Domain           1 (Units: s)
 =================================================
  => Coupler Component                       0.578
   -- Physics & Parameterization             0.144
   -- Diagnostics Out                        0.000
  => GEOS-Chem Column                      151.916
  ===> Total Chemistry                     152.494
  => WRF                                   314.952
  ===> Total WRF-GC                        467.446
 max optd  1.9364301E+31
 max taucldi  1.4682236E-05
 max taucldw  2.0951378E-05
 Switching is not necessary as we are already
 in the right domain!
 GIGC_Chunk_Run: Running for in-PET grid #           1
 GIGC_Chunk_Run: Received new grid IM, JM, LM =          15           9
          49
 =================================================
 W R F - G C   T I M E R S
    Domain           1 (Units: s)
 =================================================
  => Coupler Component                       0.612
   -- Physics & Parameterization             0.153
   -- Diagnostics Out                        0.000
  => GEOS-Chem Column                      152.949
  ===> Total Chemistry                     153.560
  => WRF                                   333.216
  ===> Total WRF-GC                        486.776
 max optd  1.9364301E+31
 max taucldi  1.5351317E-05
 max taucldw  2.2407776E-05
 Switching is not necessary as we are already
 in the right domain!
 GIGC_Chunk_Run: Running for in-PET grid #           1
 GIGC_Chunk_Run: Received new grid IM, JM, LM =          15           9
          49
 =================================================
 W R F - G C   T I M E R S
    Domain           1 (Units: s)
 =================================================
  => Coupler Component                       0.648
   -- Physics & Parameterization             0.162
   -- Diagnostics Out                        0.000
  => GEOS-Chem Column                      153.968
  ===> Total Chemistry                     154.617
  => WRF                                   351.430
  ===> Total WRF-GC                        506.047
 max optd  1.9364301E+31
 max taucldi  1.6028869E-05
 max taucldw  2.3764977E-05
 Switching is not necessary as we are already
 in the right domain!
 GIGC_Chunk_Run: Running for in-PET grid #           1
 GIGC_Chunk_Run: Received new grid IM, JM, LM =          15           9
          49
 =================================================
 W R F - G C   T I M E R S
    Domain           1 (Units: s)
 =================================================
  => Coupler Component                       0.684
   -- Physics & Parameterization             0.171
   -- Diagnostics Out                        0.000
  => GEOS-Chem Column                      154.995
  ===> Total Chemistry                     155.679
  => WRF                                   369.718
  ===> Total WRF-GC                        525.397
 max optd  1.9364301E+31
 max taucldi  1.6705695E-05
 max taucldw  2.5008563E-05
 Switching is not necessary as we are already
 in the right domain!
 GIGC_Chunk_Run: Running for in-PET grid #           1
 GIGC_Chunk_Run: Received new grid IM, JM, LM =          15           9
          49
 =================================================
 W R F - G C   T I M E R S
    Domain           1 (Units: s)
 =================================================
  => Coupler Component                       0.724
   -- Physics & Parameterization             0.180
   -- Diagnostics Out                        0.000
  => GEOS-Chem Column                      156.021
  ===> Total Chemistry                     156.745
  => WRF                                   388.110
  ===> Total WRF-GC                        544.855
 max optd  1.9364301E+31
 max taucldi  1.7507249E-05
 max taucldw  2.6117357E-05
 Switching is not necessary as we are already
 in the right domain!
 GIGC_Chunk_Run: Running for in-PET grid #           1
 GIGC_Chunk_Run: Received new grid IM, JM, LM =          15           9
          49
 =================================================
 W R F - G C   T I M E R S
    Domain           1 (Units: s)
 =================================================
  => Coupler Component                       0.764
   -- Physics & Parameterization             0.189
   -- Diagnostics Out                        0.000
  => GEOS-Chem Column                      157.084
  ===> Total Chemistry                     157.848
  => WRF                                   406.233
  ===> Total WRF-GC                        564.081
 max optd  1.9364301E+31
 max taucldi  1.8315744E-05
 max taucldw  2.7098360E-05
 Switching is not necessary as we are already
 in the right domain!
 GIGC_Chunk_Run: Running for in-PET grid #           1
 GIGC_Chunk_Run: Received new grid IM, JM, LM =          15           9
          49
 =================================================
 W R F - G C   T I M E R S
    Domain           1 (Units: s)
 =================================================
  => Coupler Component                       0.803
   -- Physics & Parameterization             0.198
   -- Diagnostics Out                        0.000
  => GEOS-Chem Column                      158.127
  ===> Total Chemistry                     158.931
  => WRF                                   424.395
  ===> Total WRF-GC                        583.326
 max optd  1.9364301E+31
 max taucldi  1.9135889E-05
 max taucldw  2.7973911E-05
 Switching is not necessary as we are already
 in the right domain!
 GIGC_Chunk_Run: Running for in-PET grid #           1
 GIGC_Chunk_Run: Received new grid IM, JM, LM =          15           9
          49
 =================================================
 W R F - G C   T I M E R S
    Domain           1 (Units: s)
 =================================================
  => Coupler Component                       0.844
   -- Physics & Parameterization             0.207
   -- Diagnostics Out                        0.000
  => GEOS-Chem Column                      159.169
  ===> Total Chemistry                     160.012
  => WRF                                   442.700
  ===> Total WRF-GC                        602.712
 max optd  1.9364301E+31
 max taucldi  1.9988151E-05
 max taucldw  2.8749831E-05
 Switching is not necessary as we are already
 in the right domain!
 GIGC_Chunk_Run: Running for in-PET grid #           1
 GIGC_Chunk_Run: Received new grid IM, JM, LM =          15           9
          49
 =================================================
 W R F - G C   T I M E R S
    Domain           1 (Units: s)
 =================================================
  => Coupler Component                       0.888
   -- Physics & Parameterization             0.216
   -- Diagnostics Out                        0.000
  => GEOS-Chem Column                      160.207
  ===> Total Chemistry                     161.095
  => WRF                                   460.893
  ===> Total WRF-GC                        621.988
 HOURLY EMISSIONS UPDATE TIME     7200.0       0.0
mediation_integrate: med_read_wrf_chem_emissions: Read emissions for time 2018-01-01_02:00:00
 max optd  1.9364301E+31
 max taucldi  2.0875063E-05
 max taucldw  2.9486217E-05
 Switching is not necessary as we are already
 in the right domain!
 GIGC_Chunk_Run: Running for in-PET grid #           1
 GIGC_Chunk_Run: Received new grid IM, JM, LM =          15           9
          49
 =================================================
 W R F - G C   T I M E R S
    Domain           1 (Units: s)
 =================================================
  => Coupler Component                       0.925
   -- Physics & Parameterization             0.225
   -- Diagnostics Out                        0.000
  => GEOS-Chem Column                      161.264
  ===> Total Chemistry                     162.189
  => WRF                                   479.097
  ===> Total WRF-GC                        641.286
 max optd  1.9364301E+31
 max taucldi  2.1827216E-05
 max taucldw  3.0196807E-05
 Switching is not necessary as we are already
 in the right domain!
 GIGC_Chunk_Run: Running for in-PET grid #           1
 GIGC_Chunk_Run: Received new grid IM, JM, LM =          15           9
          49
 =================================================
 W R F - G C   T I M E R S
    Domain           1 (Units: s)
 =================================================
  => Coupler Component                       0.966
   -- Physics & Parameterization             0.234
   -- Diagnostics Out                        0.000
  => GEOS-Chem Column                      162.313
  ===> Total Chemistry                     163.280
  => WRF                                   497.320
  ===> Total WRF-GC                        660.599
 max optd  1.9364301E+31
 max taucldi  2.2846303E-05
 max taucldw  3.0910862E-05
 Switching is not necessary as we are already
 in the right domain!
 GIGC_Chunk_Run: Running for in-PET grid #           1
 GIGC_Chunk_Run: Received new grid IM, JM, LM =          15           9
          49
 =================================================
 W R F - G C   T I M E R S
    Domain           1 (Units: s)
 =================================================
  => Coupler Component                       1.007
   -- Physics & Parameterization             0.243
   -- Diagnostics Out                        0.000
  => GEOS-Chem Column                      163.358
  ===> Total Chemistry                     164.365
  => WRF                                   515.443
  ===> Total WRF-GC                        679.808
 max optd  1.9364301E+31
 max taucldi  2.3914770E-05
 max taucldw  3.1658583E-05
 Switching is not necessary as we are already
 in the right domain!
 GIGC_Chunk_Run: Running for in-PET grid #           1
 GIGC_Chunk_Run: Received new grid IM, JM, LM =          15           9
          49
 =================================================
 W R F - G C   T I M E R S
    Domain           1 (Units: s)
 =================================================
  => Coupler Component                       1.047
   -- Physics & Parameterization             0.252
   -- Diagnostics Out                        0.000
  => GEOS-Chem Column                      164.404
  ===> Total Chemistry                     165.451
  => WRF                                   533.558
  ===> Total WRF-GC                        699.009
 max optd  1.9364301E+31
 max taucldi  2.4999159E-05
 max taucldw  3.2416821E-05
 Switching is not necessary as we are already
 in the right domain!
 GIGC_Chunk_Run: Running for in-PET grid #           1
 GIGC_Chunk_Run: Received new grid IM, JM, LM =          15           9
          49
 =================================================
 W R F - G C   T I M E R S
    Domain           1 (Units: s)
 =================================================
  => Coupler Component                       1.090
   -- Physics & Parameterization             0.261
   -- Diagnostics Out                        0.000
  => GEOS-Chem Column                      165.447
  ===> Total Chemistry                     166.536
  => WRF                                   551.705
  ===> Total WRF-GC                        718.242
 max optd  1.9364301E+31
 max taucldi  2.6076810E-05
 max taucldw  3.3121582E-05
 Switching is not necessary as we are already
 in the right domain!
 GIGC_Chunk_Run: Running for in-PET grid #           1
 GIGC_Chunk_Run: Received new grid IM, JM, LM =          15           9
          49
 =================================================
 W R F - G C   T I M E R S
    Domain           1 (Units: s)
 =================================================
  => Coupler Component                       1.127
   -- Physics & Parameterization             0.270
   -- Diagnostics Out                        0.000
  => GEOS-Chem Column                      166.497
  ===> Total Chemistry                     167.625
  => WRF                                   569.841
  ===> Total WRF-GC                        737.466
 max optd  1.9364301E+31
 max taucldi  2.7108897E-05
 max taucldw  3.3706332E-05
 Switching is not necessary as we are already
 in the right domain!
 GIGC_Chunk_Run: Running for in-PET grid #           1
 GIGC_Chunk_Run: Received new grid IM, JM, LM =          15           9
          49
 =================================================
 W R F - G C   T I M E R S
    Domain           1 (Units: s)
 =================================================
  => Coupler Component                       1.171
   -- Physics & Parameterization             0.279
   -- Diagnostics Out                        0.000
  => GEOS-Chem Column                      167.520
  ===> Total Chemistry                     168.691
  => WRF                                   587.985
  ===> Total WRF-GC                        756.676
 max optd  1.9364301E+31
 max taucldi  2.8087112E-05
 max taucldw  3.4100351E-05
 Switching is not necessary as we are already
 in the right domain!
 GIGC_Chunk_Run: Running for in-PET grid #           1
 GIGC_Chunk_Run: Received new grid IM, JM, LM =          15           9
          49
 =================================================
 W R F - G C   T I M E R S
    Domain           1 (Units: s)
 =================================================
  => Coupler Component                       1.211
   -- Physics & Parameterization             0.288
   -- Diagnostics Out                        0.000
  => GEOS-Chem Column                      168.573
  ===> Total Chemistry                     169.783
  => WRF                                   606.101
  ===> Total WRF-GC                        775.885
 max optd  1.9364301E+31
 max taucldi  2.9016132E-05
 max taucldw  3.4451808E-05
 Switching is not necessary as we are already
 in the right domain!
 GIGC_Chunk_Run: Running for in-PET grid #           1
 GIGC_Chunk_Run: Received new grid IM, JM, LM =          15           9
          49
 =================================================
 W R F - G C   T I M E R S
    Domain           1 (Units: s)
 =================================================
  => Coupler Component                       1.253
   -- Physics & Parameterization             0.297
   -- Diagnostics Out                        0.000
  => GEOS-Chem Column                      169.616
  ===> Total Chemistry                     170.869
  => WRF                                   624.209
  ===> Total WRF-GC                        795.078
 max optd  1.9364301E+31
 max taucldi  2.9886245E-05
 max taucldw  3.5047058E-05
 Switching is not necessary as we are already
 in the right domain!
 GIGC_Chunk_Run: Running for in-PET grid #           1
 GIGC_Chunk_Run: Received new grid IM, JM, LM =          15           9
          49
 =================================================
 W R F - G C   T I M E R S
    Domain           1 (Units: s)
 =================================================
  => Coupler Component                       1.292
   -- Physics & Parameterization             0.306
   -- Diagnostics Out                        0.000
  => GEOS-Chem Column                      170.669
  ===> Total Chemistry                     171.961
  => WRF                                   642.353
  ===> Total WRF-GC                        814.314
 max optd  1.9364301E+31
 max taucldi  3.0706608E-05
 max taucldw  3.5488130E-05
 Switching is not necessary as we are already
 in the right domain!
 GIGC_Chunk_Run: Running for in-PET grid #           1
 GIGC_Chunk_Run: Received new grid IM, JM, LM =          15           9
          49
 =================================================
 W R F - G C   T I M E R S
    Domain           1 (Units: s)
 =================================================
  => Coupler Component                       1.332
   -- Physics & Parameterization             0.315
   -- Diagnostics Out                        0.000
  => GEOS-Chem Column                      171.717
  ===> Total Chemistry                     173.049
  => WRF                                   660.422
  ===> Total WRF-GC                        833.471
 max optd  1.9364301E+31
 max taucldi  3.1477648E-05
 max taucldw  3.5761281E-05
 Switching is not necessary as we are already
 in the right domain!
 GIGC_Chunk_Run: Running for in-PET grid #           1
 GIGC_Chunk_Run: Received new grid IM, JM, LM =          15           9
          49
 =================================================
 W R F - G C   T I M E R S
    Domain           1 (Units: s)
 =================================================
  => Coupler Component                       1.371
   -- Physics & Parameterization             0.325
   -- Diagnostics Out                        0.000
  => GEOS-Chem Column                      172.766
  ===> Total Chemistry                     174.137
  => WRF                                   678.500
  ===> Total WRF-GC                        852.637
 HOURLY EMISSIONS UPDATE TIME    10800.0       0.0
mediation_integrate: med_read_wrf_chem_emissions: Read emissions for time 2018-01-01_03:00:00
 max optd  1.9364301E+31
 max taucldi  3.2230062E-05
 max taucldw  3.5874513E-05
 Switching is not necessary as we are already
 in the right domain!
 GIGC_Chunk_Run: Running for in-PET grid #           1
 GIGC_Chunk_Run: Received new grid IM, JM, LM =          15           9
          49
 =================================================
 W R F - G C   T I M E R S
    Domain           1 (Units: s)
 =================================================
  => Coupler Component                       1.411
   -- Physics & Parameterization             0.334
   -- Diagnostics Out                        0.000
  => GEOS-Chem Column                      173.801
  ===> Total Chemistry                     175.212
  => WRF                                   696.633
  ===> Total WRF-GC                        871.845
 max optd  1.9364301E+31
 max taucldi  3.2991742E-05
 max taucldw  3.6006571E-05
 Switching is not necessary as we are already
 in the right domain!
 GIGC_Chunk_Run: Running for in-PET grid #           1
 GIGC_Chunk_Run: Received new grid IM, JM, LM =          15           9
          49
 =================================================
 W R F - G C   T I M E R S
    Domain           1 (Units: s)
 =================================================
  => Coupler Component                       1.451
   -- Physics & Parameterization             0.343
   -- Diagnostics Out                        0.000
  => GEOS-Chem Column                      174.853
  ===> Total Chemistry                     176.303
  => WRF                                   714.738
  ===> Total WRF-GC                        891.041
 max optd  1.9364301E+31
 max taucldi  3.3875673E-05
 max taucldw  3.6484802E-05
 Switching is not necessary as we are already
 in the right domain!
 GIGC_Chunk_Run: Running for in-PET grid #           1
 GIGC_Chunk_Run: Received new grid IM, JM, LM =          15           9
          49
 =================================================
 W R F - G C   T I M E R S
    Domain           1 (Units: s)
 =================================================
  => Coupler Component                       1.491
   -- Physics & Parameterization             0.352
   -- Diagnostics Out                        0.000
  => GEOS-Chem Column                      175.896
  ===> Total Chemistry                     177.386
  => WRF                                   732.846
  ===> Total WRF-GC                        910.233
 max optd  1.9364301E+31
 max taucldi  3.4707846E-05
 max taucldw  3.7003261E-05
 Switching is not necessary as we are already
 in the right domain!
 GIGC_Chunk_Run: Running for in-PET grid #           1
 GIGC_Chunk_Run: Received new grid IM, JM, LM =          15           9
          49
 =================================================
 W R F - G C   T I M E R S
    Domain           1 (Units: s)
 =================================================
  => Coupler Component                       1.529
   -- Physics & Parameterization             0.361
   -- Diagnostics Out                        0.000
  => GEOS-Chem Column                      176.939
  ===> Total Chemistry                     178.468
  => WRF                                   750.945
  ===> Total WRF-GC                        929.414
 max optd  1.9364301E+31
 max taucldi  3.5497029E-05
 max taucldw  3.7507409E-05
 Switching is not necessary as we are already
 in the right domain!
 GIGC_Chunk_Run: Running for in-PET grid #           1
 GIGC_Chunk_Run: Received new grid IM, JM, LM =          15           9
          49
 =================================================
 W R F - G C   T I M E R S
    Domain           1 (Units: s)
 =================================================
  => Coupler Component                       1.569
   -- Physics & Parameterization             0.370
   -- Diagnostics Out                        0.000
  => GEOS-Chem Column                      177.982
  ===> Total Chemistry                     179.552
  => WRF                                   769.018
  ===> Total WRF-GC                        948.569
 max optd  1.9364301E+31
 max taucldi  3.6252975E-05
 max taucldw  3.8015296E-05
 Switching is not necessary as we are already
 in the right domain!
 GIGC_Chunk_Run: Running for in-PET grid #           1
 GIGC_Chunk_Run: Received new grid IM, JM, LM =          15           9
          49
 =================================================
 W R F - G C   T I M E R S
    Domain           1 (Units: s)
 =================================================
  => Coupler Component                       1.611
   -- Physics & Parameterization             0.380
   -- Diagnostics Out                        0.000
  => GEOS-Chem Column                      179.029
  ===> Total Chemistry                     180.640
  => WRF                                   787.363
  ===> Total WRF-GC                        968.004
 max optd  1.9364301E+31
 max taucldi  3.6963087E-05
 max taucldw  3.8550541E-05
 Switching is not necessary as we are already
 in the right domain!
 GIGC_Chunk_Run: Running for in-PET grid #           1
 GIGC_Chunk_Run: Received new grid IM, JM, LM =          15           9
          49
 =================================================
 W R F - G C   T I M E R S
    Domain           1 (Units: s)
 =================================================
  => Coupler Component                       1.649
   -- Physics & Parameterization             0.389
   -- Diagnostics Out                        0.000
  => GEOS-Chem Column                      180.085
  ===> Total Chemistry                     181.734
  => WRF                                   805.534
  ===> Total WRF-GC                        987.268
 max optd  1.9364301E+31
 max taucldi  3.7600708E-05
 max taucldw  3.9102957E-05
 Switching is not necessary as we are already
 in the right domain!
 GIGC_Chunk_Run: Running for in-PET grid #           1
 GIGC_Chunk_Run: Received new grid IM, JM, LM =          15           9
          49
 =================================================
 W R F - G C   T I M E R S
    Domain           1 (Units: s)
 =================================================
  => Coupler Component                       1.689
   -- Physics & Parameterization             0.398
   -- Diagnostics Out                        0.000
  => GEOS-Chem Column                      181.132
  ===> Total Chemistry                     182.820
  => WRF                                   823.585
  ===> Total WRF-GC                       1006.405
 max optd  1.9364301E+31
 max taucldi  8.9615547E-05
 max taucldw  3.9661460E-05
 Switching is not necessary as we are already
 in the right domain!
 GIGC_Chunk_Run: Running for in-PET grid #           1
 GIGC_Chunk_Run: Received new grid IM, JM, LM =          15           9
          49
 =================================================
 W R F - G C   T I M E R S
    Domain           1 (Units: s)
 =================================================
  => Coupler Component                       1.728
   -- Physics & Parameterization             0.407
   -- Diagnostics Out                        0.000
  => GEOS-Chem Column                      182.163
  ===> Total Chemistry                     183.891
  => WRF                                   841.799
  ===> Total WRF-GC                       1025.691
 max optd  1.9364301E+31
 max taucldi  1.3919815E-03
 max taucldw  4.0211864E-05
 Switching is not necessary as we are already
 in the right domain!
 GIGC_Chunk_Run: Running for in-PET grid #           1
 GIGC_Chunk_Run: Received new grid IM, JM, LM =          15           9
          49
 =================================================
 W R F - G C   T I M E R S
    Domain           1 (Units: s)
 =================================================
  => Coupler Component                       1.760
   -- Physics & Parameterization             0.416
   -- Diagnostics Out                        0.000
  => GEOS-Chem Column                      183.194
  ===> Total Chemistry                     184.954
  => WRF                                   859.985
  ===> Total WRF-GC                       1044.939
 max optd  1.9364301E+31
 max taucldi  3.7719940E-03
 max taucldw  4.0721261E-05
 Switching is not necessary as we are already
 in the right domain!
 GIGC_Chunk_Run: Running for in-PET grid #           1
 GIGC_Chunk_Run: Received new grid IM, JM, LM =          15           9
          49
 =================================================
 W R F - G C   T I M E R S
    Domain           1 (Units: s)
 =================================================
  => Coupler Component                       1.797
   -- Physics & Parameterization             0.425
   -- Diagnostics Out                        0.000
  => GEOS-Chem Column                      184.243
  ===> Total Chemistry                     186.040
  => WRF                                   878.090
  ===> Total WRF-GC                       1064.130
 max optd  1.9364301E+31
 max taucldi  6.1533055E-03
 max taucldw  4.1171028E-05
 Switching is not necessary as we are already
 in the right domain!
 GIGC_Chunk_Run: Running for in-PET grid #           1
 GIGC_Chunk_Run: Received new grid IM, JM, LM =          15           9
          49
 =================================================
 W R F - G C   T I M E R S
    Domain           1 (Units: s)
 =================================================
  => Coupler Component                       1.836
   -- Physics & Parameterization             0.434
   -- Diagnostics Out                        0.000
  => GEOS-Chem Column                      185.291
  ===> Total Chemistry                     187.127
  => WRF                                   896.232
  ===> Total WRF-GC                       1083.359
 HOURLY EMISSIONS UPDATE TIME    14400.0       0.0
mediation_integrate: med_read_wrf_chem_emissions: Read emissions for time 2018-01-01_04:00:00
 max optd  1.9364301E+31
 max taucldi  8.2474556E-03
 max taucldw  4.1532930E-05
 Switching is not necessary as we are already
 in the right domain!
 GIGC_Chunk_Run: Running for in-PET grid #           1
 GIGC_Chunk_Run: Received new grid IM, JM, LM =          15           9
          49
 =================================================
 W R F - G C   T I M E R S
    Domain           1 (Units: s)
 =================================================
  => Coupler Component                       1.877
   -- Physics & Parameterization             0.443
   -- Diagnostics Out                        0.000
  => GEOS-Chem Column                      186.336
  ===> Total Chemistry                     188.213
  => WRF                                   914.381
  ===> Total WRF-GC                       1102.594
 max optd  1.9364301E+31
 max taucldi  1.0326343E-02
 max taucldw  4.1812324E-05
 Switching is not necessary as we are already
 in the right domain!
 GIGC_Chunk_Run: Running for in-PET grid #           1
 GIGC_Chunk_Run: Received new grid IM, JM, LM =          15           9
          49
 =================================================
 W R F - G C   T I M E R S
    Domain           1 (Units: s)
 =================================================
  => Coupler Component                       1.917
   -- Physics & Parameterization             0.452
   -- Diagnostics Out                        0.000
  => GEOS-Chem Column                      187.389
  ===> Total Chemistry                     189.306
  => WRF                                   932.523
  ===> Total WRF-GC                       1121.829
 max optd  1.9364301E+31
 max taucldi  1.2380532E-02
 max taucldw  4.2027947E-05
 Switching is not necessary as we are already
 in the right domain!
 GIGC_Chunk_Run: Running for in-PET grid #           1
 GIGC_Chunk_Run: Received new grid IM, JM, LM =          15           9
          49
 =================================================
 W R F - G C   T I M E R S
    Domain           1 (Units: s)
 =================================================
  => Coupler Component                       1.956
   -- Physics & Parameterization             0.462
   -- Diagnostics Out                        0.000
  => GEOS-Chem Column                      188.427
  ===> Total Chemistry                     190.383
  => WRF                                   950.739
  ===> Total WRF-GC                       1141.122
 max optd  1.9364301E+31
 max taucldi  1.2989825E-02
 max taucldw  4.2202635E-05
 Switching is not necessary as we are already
 in the right domain!
 GIGC_Chunk_Run: Running for in-PET grid #           1
 GIGC_Chunk_Run: Received new grid IM, JM, LM =          15           9
          49
 =================================================
 W R F - G C   T I M E R S
    Domain           1 (Units: s)
 =================================================
  => Coupler Component                       1.997
   -- Physics & Parameterization             0.471
   -- Diagnostics Out                        0.000
  => GEOS-Chem Column                      189.470
  ===> Total Chemistry                     191.467
  => WRF                                   968.874
  ===> Total WRF-GC                       1160.341
 max optd  1.9364301E+31
 max taucldi  1.2431641E-02
 max taucldw  4.2302305E-05
 Switching is not necessary as we are already
 in the right domain!
 GIGC_Chunk_Run: Running for in-PET grid #           1
 GIGC_Chunk_Run: Received new grid IM, JM, LM =          15           9
          49
 =================================================
 W R F - G C   T I M E R S
    Domain           1 (Units: s)
 =================================================
  => Coupler Component                       2.039
   -- Physics & Parameterization             0.480
   -- Diagnostics Out                        0.000
  => GEOS-Chem Column                      190.505
  ===> Total Chemistry                     192.544
  => WRF                                   987.029
  ===> Total WRF-GC                       1179.573
 max optd  1.9364301E+31
 max taucldi  2.6984017E-02
 max taucldw  4.2264790E-05
 Switching is not necessary as we are already
 in the right domain!
 GIGC_Chunk_Run: Running for in-PET grid #           1
 GIGC_Chunk_Run: Received new grid IM, JM, LM =          15           9
          49
 =================================================
 W R F - G C   T I M E R S
    Domain           1 (Units: s)
 =================================================
  => Coupler Component                       2.078
   -- Physics & Parameterization             0.489
   -- Diagnostics Out                        0.000
  => GEOS-Chem Column                      191.547
  ===> Total Chemistry                     193.625
  => WRF                                  1005.186
  ===> Total WRF-GC                       1198.811
 max optd  1.9364301E+31
 max taucldi  3.7995469E-02
 max taucldw  4.1993491E-05
 Switching is not necessary as we are already
 in the right domain!
 GIGC_Chunk_Run: Running for in-PET grid #           1
 GIGC_Chunk_Run: Received new grid IM, JM, LM =          15           9
          49
 =================================================
 W R F - G C   T I M E R S
    Domain           1 (Units: s)
 =================================================
  => Coupler Component                       2.119
   -- Physics & Parameterization             0.498
   -- Diagnostics Out                        0.000
  => GEOS-Chem Column                      192.585
  ===> Total Chemistry                     194.703
  => WRF                                  1023.390
  ===> Total WRF-GC                       1218.093
 max optd  1.9364301E+31
 max taucldi  3.6066815E-02
 max taucldw  4.1414511E-05
 Switching is not necessary as we are already
 in the right domain!
 GIGC_Chunk_Run: Running for in-PET grid #           1
 GIGC_Chunk_Run: Received new grid IM, JM, LM =          15           9
          49
 =================================================
 W R F - G C   T I M E R S
    Domain           1 (Units: s)
 =================================================
  => Coupler Component                       2.161
   -- Physics & Parameterization             0.507
   -- Diagnostics Out                        0.000
  => GEOS-Chem Column                      193.629
  ===> Total Chemistry                     195.790
  => WRF                                  1041.508
  ===> Total WRF-GC                       1237.298
 max optd  1.9364301E+31
 max taucldi  3.7519984E-02
 max taucldw  4.0449915E-05
 Switching is not necessary as we are already
 in the right domain!
 GIGC_Chunk_Run: Running for in-PET grid #           1
 GIGC_Chunk_Run: Received new grid IM, JM, LM =          15           9
          49
 =================================================
 W R F - G C   T I M E R S
    Domain           1 (Units: s)
 =================================================
  => Coupler Component                       2.201
   -- Physics & Parameterization             0.516
   -- Diagnostics Out                        0.000
  => GEOS-Chem Column                      194.682
  ===> Total Chemistry                     196.883
  => WRF                                  1059.660
  ===> Total WRF-GC                       1256.543
 max optd  1.9364301E+31
 max taucldi  3.9929889E-02
 max taucldw  3.9119474E-05
 Switching is not necessary as we are already
 in the right domain!
 GIGC_Chunk_Run: Running for in-PET grid #           1
 GIGC_Chunk_Run: Received new grid IM, JM, LM =          15           9
          49
 =================================================
 W R F - G C   T I M E R S
    Domain           1 (Units: s)
 =================================================
  => Coupler Component                       2.242
   -- Physics & Parameterization             0.526
   -- Diagnostics Out                        0.000
  => GEOS-Chem Column                      195.730
  ===> Total Chemistry                     197.972
  => WRF                                  1077.788
  ===> Total WRF-GC                       1275.760
 max optd  1.9364301E+31
 max taucldi  5.5371426E-02
 max taucldw  3.7472932E-05
 Switching is not necessary as we are already
 in the right domain!
 GIGC_Chunk_Run: Running for in-PET grid #           1
 GIGC_Chunk_Run: Received new grid IM, JM, LM =          15           9
          49
 =================================================
 W R F - G C   T I M E R S
    Domain           1 (Units: s)
 =================================================
  => Coupler Component                       2.284
   -- Physics & Parameterization             0.535
   -- Diagnostics Out                        0.000
  => GEOS-Chem Column                      196.783
  ===> Total Chemistry                     199.067
  => WRF                                  1095.876
  ===> Total WRF-GC                       1294.943
 max optd  1.9364301E+31
 max taucldi  7.0190266E-02
 max taucldw  3.5603010E-05
 Switching is not necessary as we are already
 in the right domain!
 GIGC_Chunk_Run: Running for in-PET grid #           1
 GIGC_Chunk_Run: Received new grid IM, JM, LM =          15           9
          49
 =================================================
 W R F - G C   T I M E R S
    Domain           1 (Units: s)
 =================================================
  => Coupler Component                       2.323
   -- Physics & Parameterization             0.544
   -- Diagnostics Out                        0.000
  => GEOS-Chem Column                      197.834
  ===> Total Chemistry                     200.157
  => WRF                                  1113.937
  ===> Total WRF-GC                       1314.094
 HOURLY EMISSIONS UPDATE TIME    18000.0       0.0
mediation_integrate: med_read_wrf_chem_emissions: Read emissions for time 2018-01-01_05:00:00
 max optd  1.9364301E+31
 max taucldi  8.2933418E-02
 max taucldw  3.6041311E-05
 Switching is not necessary as we are already
 in the right domain!
 GIGC_Chunk_Run: Running for in-PET grid #           1
 GIGC_Chunk_Run: Received new grid IM, JM, LM =          15           9
          49
 =================================================
 W R F - G C   T I M E R S
    Domain           1 (Units: s)
 =================================================
  => Coupler Component                       2.364
   -- Physics & Parameterization             0.553
   -- Diagnostics Out                        0.000
  => GEOS-Chem Column                      198.888
  ===> Total Chemistry                     201.252
  => WRF                                  1132.102
  ===> Total WRF-GC                       1333.354
 max optd  1.9364301E+31
 max taucldi  9.1884814E-02
 max taucldw  3.6738020E-05
 Switching is not necessary as we are already
 in the right domain!
 GIGC_Chunk_Run: Running for in-PET grid #           1
 GIGC_Chunk_Run: Received new grid IM, JM, LM =          15           9
          49
 =================================================
 W R F - G C   T I M E R S
    Domain           1 (Units: s)
 =================================================
  => Coupler Component                       2.405
   -- Physics & Parameterization             0.562
   -- Diagnostics Out                        0.000
  => GEOS-Chem Column                      199.924
  ===> Total Chemistry                     202.329
  => WRF                                  1150.204
  ===> Total WRF-GC                       1352.533
 max optd  1.9364301E+31
 max taucldi  9.5575556E-02
 max taucldw  3.7417529E-05
 Switching is not necessary as we are already
 in the right domain!
 GIGC_Chunk_Run: Running for in-PET grid #           1
 GIGC_Chunk_Run: Received new grid IM, JM, LM =          15           9
          49
 =================================================
 W R F - G C   T I M E R S
    Domain           1 (Units: s)
 =================================================
  => Coupler Component                       2.445
   -- Physics & Parameterization             0.571
   -- Diagnostics Out                        0.000
  => GEOS-Chem Column                      200.985
  ===> Total Chemistry                     203.431
  => WRF                                  1168.321
  ===> Total WRF-GC                       1371.751
 max optd  1.9364301E+31
 max taucldi  9.4371997E-02
 max taucldw  3.8029171E-05
 Switching is not necessary as we are already
 in the right domain!
 GIGC_Chunk_Run: Running for in-PET grid #           1
 GIGC_Chunk_Run: Received new grid IM, JM, LM =          15           9
          49
 =================================================
 W R F - G C   T I M E R S
    Domain           1 (Units: s)
 =================================================
  => Coupler Component                       2.488
   -- Physics & Parameterization             0.580
   -- Diagnostics Out                        0.000
  => GEOS-Chem Column                      202.014
  ===> Total Chemistry                     204.502
  => WRF                                  1186.452
  ===> Total WRF-GC                       1390.954
 max optd  1.9364301E+31
 max taucldi  9.4470523E-02
 max taucldw  3.8545117E-05
 Switching is not necessary as we are already
 in the right domain!
 GIGC_Chunk_Run: Running for in-PET grid #           1
 GIGC_Chunk_Run: Received new grid IM, JM, LM =          15           9
          49
 =================================================
 W R F - G C   T I M E R S
    Domain           1 (Units: s)
 =================================================
  => Coupler Component                       2.529
   -- Physics & Parameterization             0.589
   -- Diagnostics Out                        0.000
  => GEOS-Chem Column                      203.064
  ===> Total Chemistry                     205.593
  => WRF                                  1204.650
  ===> Total WRF-GC                       1410.243
 max optd  1.9364301E+31
 max taucldi  9.9222623E-02
 max taucldw  3.8957227E-05
 Switching is not necessary as we are already
 in the right domain!
 GIGC_Chunk_Run: Running for in-PET grid #           1
 GIGC_Chunk_Run: Received new grid IM, JM, LM =          15           9
          49
 =================================================
 W R F - G C   T I M E R S
    Domain           1 (Units: s)
 =================================================
  => Coupler Component                       2.573
   -- Physics & Parameterization             0.599
   -- Diagnostics Out                        0.000
  => GEOS-Chem Column                      204.107
  ===> Total Chemistry                     206.681
  => WRF                                  1222.733
  ===> Total WRF-GC                       1429.414
 max optd  1.9364301E+31
 max taucldi  0.1282623    
 max taucldw  3.9258670E-05
 Switching is not necessary as we are already
 in the right domain!
 GIGC_Chunk_Run: Running for in-PET grid #           1
 GIGC_Chunk_Run: Received new grid IM, JM, LM =          15           9
          49
 =================================================
 W R F - G C   T I M E R S
    Domain           1 (Units: s)
 =================================================
  => Coupler Component                       2.615
   -- Physics & Parameterization             0.608
   -- Diagnostics Out                        0.000
  => GEOS-Chem Column                      205.165
  ===> Total Chemistry                     207.780
  => WRF                                  1240.934
  ===> Total WRF-GC                       1448.714
 max optd  1.9364301E+31
 max taucldi  0.1737180    
 max taucldw  3.9438448E-05
 Switching is not necessary as we are already
 in the right domain!
 GIGC_Chunk_Run: Running for in-PET grid #           1
 GIGC_Chunk_Run: Received new grid IM, JM, LM =          15           9
          49
 =================================================
 W R F - G C   T I M E R S
    Domain           1 (Units: s)
 =================================================
  => Coupler Component                       2.656
   -- Physics & Parameterization             0.617
   -- Diagnostics Out                        0.000
  => GEOS-Chem Column                      206.212
  ===> Total Chemistry                     208.868
  => WRF                                  1259.038
  ===> Total WRF-GC                       1467.906
 max optd  1.9364301E+31
 max taucldi  0.2014342    
 max taucldw  3.9478120E-05
 Switching is not necessary as we are already
 in the right domain!
 GIGC_Chunk_Run: Running for in-PET grid #           1
 GIGC_Chunk_Run: Received new grid IM, JM, LM =          15           9
          49
 =================================================
 W R F - G C   T I M E R S
    Domain           1 (Units: s)
 =================================================
  => Coupler Component                       2.698
   -- Physics & Parameterization             0.626
   -- Diagnostics Out                        0.000
  => GEOS-Chem Column                      207.262
  ===> Total Chemistry                     209.960
  => WRF                                  1277.210
  ===> Total WRF-GC                       1487.171
 max optd  1.9364301E+31
 max taucldi  0.2212188    
 max taucldw  3.9369170E-05
 Switching is not necessary as we are already
 in the right domain!
 GIGC_Chunk_Run: Running for in-PET grid #           1
 GIGC_Chunk_Run: Received new grid IM, JM, LM =          15           9
          49
 =================================================
 W R F - G C   T I M E R S
    Domain           1 (Units: s)
 =================================================
  => Coupler Component                       2.743
   -- Physics & Parameterization             0.635
   -- Diagnostics Out                        0.000
  => GEOS-Chem Column                      208.297
  ===> Total Chemistry                     211.041
  => WRF                                  1295.615
  ===> Total WRF-GC                       1506.656
 max optd  1.9364301E+31
 max taucldi  0.2401727    
 max taucldw  3.9119510E-05
 Switching is not necessary as we are already
 in the right domain!
 GIGC_Chunk_Run: Running for in-PET grid #           1
 GIGC_Chunk_Run: Received new grid IM, JM, LM =          15           9
          49
 =================================================
 W R F - G C   T I M E R S
    Domain           1 (Units: s)
 =================================================
  => Coupler Component                       2.782
   -- Physics & Parameterization             0.644
   -- Diagnostics Out                        0.000
  => GEOS-Chem Column                      209.367
  ===> Total Chemistry                     212.148
  => WRF                                  1313.753
  ===> Total WRF-GC                       1525.901
 max optd  1.9364301E+31
 max taucldi  0.2524953    
 max taucldw  3.8721406E-05
 Switching is not necessary as we are already
 in the right domain!
 GIGC_Chunk_Run: Running for in-PET grid #           1
 GIGC_Chunk_Run: Received new grid IM, JM, LM =          15           9
          49
 =================================================
 W R F - G C   T I M E R S
    Domain           1 (Units: s)
 =================================================
  => Coupler Component                       2.822
   -- Physics & Parameterization             0.653
   -- Diagnostics Out                        0.000
  => GEOS-Chem Column                      210.412
  ===> Total Chemistry                     213.234
  => WRF                                  1331.865
  ===> Total WRF-GC                       1545.099
 HOURLY EMISSIONS UPDATE TIME    21600.0       0.0
mediation_integrate: med_read_wrf_chem_emissions: Read emissions for time 2018-01-01_06:00:00
 max optd  1.9364301E+31
 max taucldi  0.2592262    
 max taucldw  3.8187518E-05
 Switching is not necessary as we are already
 in the right domain!
 GIGC_Chunk_Run: Running for in-PET grid #           1
 GIGC_Chunk_Run: Received new grid IM, JM, LM =          15           9
          49
 =================================================
 W R F - G C   T I M E R S
    Domain           1 (Units: s)
 =================================================
  => Coupler Component                       2.861
   -- Physics & Parameterization             0.662
   -- Diagnostics Out                        0.000
  => GEOS-Chem Column                      211.480
  ===> Total Chemistry                     214.341
  => WRF                                  1790.538
  ===> Total WRF-GC                       2004.880
 max optd  1.9364301E+31
 max taucldi  0.2634018    
 max taucldw  3.7522532E-05
 Switching is not necessary as we are already
 in the right domain!
 GIGC_Chunk_Run: Running for in-PET grid #           1
 GIGC_Chunk_Run: Received new grid IM, JM, LM =          15           9
          49
 =================================================
 W R F - G C   T I M E R S
    Domain           1 (Units: s)
 =================================================
  => Coupler Component                       2.906
   -- Physics & Parameterization             0.671
   -- Diagnostics Out                        0.000
  => GEOS-Chem Column                      212.519
  ===> Total Chemistry                     215.425
  => WRF                                  1808.668
  ===> Total WRF-GC                       2024.093
 max optd  1.9364301E+31
 max taucldi  0.2557595    
 max taucldw  3.6752361E-05
 Switching is not necessary as we are already
 in the right domain!
 GIGC_Chunk_Run: Running for in-PET grid #           1
 GIGC_Chunk_Run: Received new grid IM, JM, LM =          15           9
          49
 =================================================
 W R F - G C   T I M E R S
    Domain           1 (Units: s)
 =================================================
  => Coupler Component                       2.948
   -- Physics & Parameterization             0.680
   -- Diagnostics Out                        0.000
  => GEOS-Chem Column                      213.565
  ===> Total Chemistry                     216.513
  => WRF                                  1826.950
  ===> Total WRF-GC                       2043.463
 max optd  1.9364301E+31
 max taucldi  0.2517472    
 max taucldw  3.5943540E-05
 Switching is not necessary as we are already
 in the right domain!
 GIGC_Chunk_Run: Running for in-PET grid #           1
 GIGC_Chunk_Run: Received new grid IM, JM, LM =          15           9
          49
 =================================================
 W R F - G C   T I M E R S
    Domain           1 (Units: s)
 =================================================
  => Coupler Component                       2.993
[...]
  => GEOS-Chem Column                      260.938
  ===> Total Chemistry                     265.659
  => WRF                                  2645.050
  ===> Total WRF-GC                       2910.709
 HOURLY EMISSIONS UPDATE TIME    36000.0       0.0
mediation_integrate: med_read_wrf_chem_emissions: Read emissions for time 2018-01-01_10:00:00
 max optd  1.9364301E+31
 max taucldi  2.0070082E-02
 max taucldw  3.4445759E-05
 Switching is not necessary as we are already
 in the right domain!
 GIGC_Chunk_Run: Running for in-PET grid #           1
 GIGC_Chunk_Run: Received new grid IM, JM, LM =          15           9
          49
 =================================================
 W R F - G C   T I M E R S
    Domain           1 (Units: s)
 =================================================
  => Coupler Component                       4.763
   -- Physics & Parameterization             1.101
   -- Diagnostics Out                        0.000
  => GEOS-Chem Column                      261.976
  ===> Total Chemistry                     266.739
  => WRF                                  2663.302
  ===> Total WRF-GC                       2930.042
 max optd  1.9364301E+31
 max taucldi  2.0295767E-02
 max taucldw  3.4124732E-05
 Switching is not necessary as we are already
 in the right domain!
 GIGC_Chunk_Run: Running for in-PET grid #           1
 GIGC_Chunk_Run: Received new grid IM, JM, LM =          15           9
          49
 =================================================
 W R F - G C   T I M E R S
    Domain           1 (Units: s)
 =================================================
  => Coupler Component                       4.800
   -- Physics & Parameterization             1.110
   -- Diagnostics Out                        0.000
  => GEOS-Chem Column                      263.033
  ===> Total Chemistry                     267.833
  => WRF                                  2681.465
  ===> Total WRF-GC                       2949.299
 max optd  1.9364301E+31
 max taucldi  2.0990029E-02
 max taucldw  3.3773380E-05
 Switching is not necessary as we are already
 in the right domain!
 GIGC_Chunk_Run: Running for in-PET grid #           1
 GIGC_Chunk_Run: Received new grid IM, JM, LM =          15           9
          49
 =================================================
 W R F - G C   T I M E R S
    Domain           1 (Units: s)
 =================================================
  => Coupler Component                       4.840
   -- Physics & Parameterization             1.119
   -- Diagnostics Out                        0.000
  => GEOS-Chem Column                      264.082
  ===> Total Chemistry                     268.922
  => WRF                                  2699.601
  ===> Total WRF-GC                       2968.523
 max optd  1.9364301E+31
 max taucldi  2.1967784E-02
 max taucldw  3.3389671E-05
 Switching is not necessary as we are already
 in the right domain!
 GIGC_Chunk_Run: Running for in-PET grid #           1
 GIGC_Chunk_Run: Received new grid IM, JM, LM =          15           9
          49
 =================================================
 W R F - G C   T I M E R S
    Domain           1 (Units: s)
 =================================================
  => Coupler Component                       4.880
   -- Physics & Parameterization             1.128
   -- Diagnostics Out                        0.000
  => GEOS-Chem Column                      265.143
  ===> Total Chemistry                     270.023
  => WRF                                  2717.845
  ===> Total WRF-GC                       2987.868
 max optd  1.9364301E+31
 max taucldi  2.3680134E-02
 max taucldw  3.2986292E-05
 Switching is not necessary as we are already
 in the right domain!
 GIGC_Chunk_Run: Running for in-PET grid #           1
 GIGC_Chunk_Run: Received new grid IM, JM, LM =          15           9
          49
 =================================================
 W R F - G C   T I M E R S
    Domain           1 (Units: s)
 =================================================
  => Coupler Component                       4.918
   -- Physics & Parameterization             1.137
   -- Diagnostics Out                        0.000
  => GEOS-Chem Column                      266.204
  ===> Total Chemistry                     271.122
  => WRF                                  2736.025
  ===> Total WRF-GC                       3007.147
 max optd  1.9364301E+31
 max taucldi  2.6283571E-02
 max taucldw  3.2575343E-05
 Switching is not necessary as we are already
 in the right domain!
 GIGC_Chunk_Run: Running for in-PET grid #           1
 GIGC_Chunk_Run: Received new grid IM, JM, LM =          15           9
          49
 =================================================
 W R F - G C   T I M E R S
    Domain           1 (Units: s)
 =================================================
  => Coupler Component                       4.954
   -- Physics & Parameterization             1.147
   -- Diagnostics Out                        0.000
  => GEOS-Chem Column                      267.252
  ===> Total Chemistry                     272.206
  => WRF                                  2754.112
  ===> Total WRF-GC                       3026.318
 max optd  1.9364301E+31
 max taucldi  2.9000480E-02
 max taucldw  3.2506548E-05
 Switching is not necessary as we are already
 in the right domain!
 GIGC_Chunk_Run: Running for in-PET grid #           1
 GIGC_Chunk_Run: Received new grid IM, JM, LM =          15           9
          49
 =================================================
 W R F - G C   T I M E R S
    Domain           1 (Units: s)
 =================================================
  => Coupler Component                       4.996
   -- Physics & Parameterization             1.156
   -- Diagnostics Out                        0.000
  => GEOS-Chem Column                      268.302
  ===> Total Chemistry                     273.298
  => WRF                                  2772.313
  ===> Total WRF-GC                       3045.611
 max optd  1.9364301E+31
 max taucldi  3.1504873E-02
 max taucldw  3.2405158E-05
 Switching is not necessary as we are already
 in the right domain!
 GIGC_Chunk_Run: Running for in-PET grid #           1
 GIGC_Chunk_Run: Received new grid IM, JM, LM =          15           9
          49
 =================================================
 W R F - G C   T I M E R S
    Domain           1 (Units: s)
 =================================================
  => Coupler Component                       5.033
   -- Physics & Parameterization             1.165
   -- Diagnostics Out                        0.000
  => GEOS-Chem Column                      269.354
  ===> Total Chemistry                     274.388
  => WRF                                  2790.481
  ===> Total WRF-GC                       3064.869
 max optd  1.9364301E+31
 max taucldi  3.3227764E-02
 max taucldw  3.2203068E-05
 Switching is not necessary as we are already
 in the right domain!
 GIGC_Chunk_Run: Running for in-PET grid #           1
 GIGC_Chunk_Run: Received new grid IM, JM, LM =          15           9
          49
 =================================================
 W R F - G C   T I M E R S
    Domain           1 (Units: s)
 =================================================
  => Coupler Component                       5.075
   -- Physics & Parameterization             1.174
   -- Diagnostics Out                        0.000
  => GEOS-Chem Column                      270.398
  ===> Total Chemistry                     275.473
  => WRF                                  2808.621
  ===> Total WRF-GC                       3084.094
 max optd  1.9364301E+31
 max taucldi  3.4272697E-02
 max taucldw  3.1926927E-05
 Switching is not necessary as we are already
 in the right domain!
 GIGC_Chunk_Run: Running for in-PET grid #           1
 GIGC_Chunk_Run: Received new grid IM, JM, LM =          15           9
          49
 =================================================
 W R F - G C   T I M E R S
    Domain           1 (Units: s)
 =================================================
  => Coupler Component                       5.114
   -- Physics & Parameterization             1.183
   -- Diagnostics Out                        0.000
  => GEOS-Chem Column                      271.450
  ===> Total Chemistry                     276.564
  => WRF                                  2826.835
  ===> Total WRF-GC                       3103.399
 max optd  1.9364301E+31
 max taucldi  3.4618396E-02
 max taucldw  3.1608673E-05
 Switching is not necessary as we are already
 in the right domain!
 GIGC_Chunk_Run: Running for in-PET grid #           1
 GIGC_Chunk_Run: Received new grid IM, JM, LM =          15           9
          49
 =================================================
 W R F - G C   T I M E R S
    Domain           1 (Units: s)
 =================================================
  => Coupler Component                       5.152
   -- Physics & Parameterization             1.192
   -- Diagnostics Out                        0.000
  => GEOS-Chem Column                      272.511
  ===> Total Chemistry                     277.664
  => WRF                                  2844.981
  ===> Total WRF-GC                       3122.644
 max optd  1.9364301E+31
 max taucldi  3.5401709E-02
 max taucldw  3.1595413E-05
 Switching is not necessary as we are already
 in the right domain!
 GIGC_Chunk_Run: Running for in-PET grid #           1
 GIGC_Chunk_Run: Received new grid IM, JM, LM =          15           9
          49
 =================================================
 W R F - G C   T I M E R S
    Domain           1 (Units: s)
 =================================================
  => Coupler Component                       5.193
   -- Physics & Parameterization             1.201
   -- Diagnostics Out                        0.000
  => GEOS-Chem Column                      273.565
  ===> Total Chemistry                     278.758
  => WRF                                  2863.182
  ===> Total WRF-GC                       3141.940
 HOURLY EMISSIONS UPDATE TIME    39600.0       0.0
mediation_integrate: med_read_wrf_chem_emissions: Read emissions for time 2018-01-01_11:00:00
 max optd  1.9364301E+31
 max taucldi  3.6820780E-02
 max taucldw  3.1677071E-05
 Switching is not necessary as we are already
 in the right domain!
 GIGC_Chunk_Run: Running for in-PET grid #           1
 GIGC_Chunk_Run: Received new grid IM, JM, LM =          15           9
          49
 =================================================
 W R F - G C   T I M E R S
    Domain           1 (Units: s)
 =================================================
  => Coupler Component                       5.235
   -- Physics & Parameterization             1.210
   -- Diagnostics Out                        0.000
  => GEOS-Chem Column                      274.605
  ===> Total Chemistry                     279.840
  => WRF                                  2881.374
  ===> Total WRF-GC                       3161.214
 max optd  1.9364301E+31
 max taucldi  3.7952088E-02
 max taucldw  3.1747270E-05
 Switching is not necessary as we are already
 in the right domain!
 GIGC_Chunk_Run: Running for in-PET grid #           1
 GIGC_Chunk_Run: Received new grid IM, JM, LM =          15           9
          49
 =================================================
 W R F - G C   T I M E R S
    Domain           1 (Units: s)
 =================================================
  => Coupler Component                       5.275
   -- Physics & Parameterization             1.219
   -- Diagnostics Out                        0.000
  => GEOS-Chem Column                      275.658
  ===> Total Chemistry                     280.933
  => WRF                                  2899.510
  ===> Total WRF-GC                       3180.443
 max optd  1.9364301E+31
 max taucldi  3.8744509E-02
 max taucldw  3.1804233E-05
 Switching is not necessary as we are already
 in the right domain!
 GIGC_Chunk_Run: Running for in-PET grid #           1
 GIGC_Chunk_Run: Received new grid IM, JM, LM =          15           9
          49
 =================================================
 W R F - G C   T I M E R S
    Domain           1 (Units: s)
 =================================================
  => Coupler Component                       5.316
   -- Physics & Parameterization             1.228
   -- Diagnostics Out                        0.000
  => GEOS-Chem Column                      276.707
  ===> Total Chemistry                     282.023
  => WRF                                  2917.748
  ===> Total WRF-GC                       3199.771
 max optd  1.9364301E+31
 max taucldi  3.9374266E-02
 max taucldw  3.1843978E-05
 Switching is not necessary as we are already
 in the right domain!
 GIGC_Chunk_Run: Running for in-PET grid #           1
 GIGC_Chunk_Run: Received new grid IM, JM, LM =          15           9
          49
 =================================================
 W R F - G C   T I M E R S
    Domain           1 (Units: s)
 =================================================
  => Coupler Component                       5.351
   -- Physics & Parameterization             1.237
   -- Diagnostics Out                        0.000
  => GEOS-Chem Column                      277.766
  ===> Total Chemistry                     283.117
  => WRF                                  2936.029
  ===> Total WRF-GC                       3219.146
 max optd  1.9364301E+31
 max taucldi  4.0144350E-02
 max taucldw  3.1863958E-05
 Switching is not necessary as we are already
 in the right domain!
 GIGC_Chunk_Run: Running for in-PET grid #           1
 GIGC_Chunk_Run: Received new grid IM, JM, LM =          15           9
          49
 =================================================
 W R F - G C   T I M E R S
    Domain           1 (Units: s)
 =================================================
  => Coupler Component                       5.390
   -- Physics & Parameterization             1.246
   -- Diagnostics Out                        0.000
  => GEOS-Chem Column                      278.827
  ===> Total Chemistry                     284.216
  => WRF                                  2954.453
  ===> Total WRF-GC                       3238.669
 max optd  1.9364301E+31
 max taucldi  4.1183256E-02
 max taucldw  3.1935026E-05
 Switching is not necessary as we are already
 in the right domain!
 GIGC_Chunk_Run: Running for in-PET grid #           1
 GIGC_Chunk_Run: Received new grid IM, JM, LM =          15           9
          49
 =================================================
 W R F - G C   T I M E R S
    Domain           1 (Units: s)
 =================================================
  => Coupler Component                       5.430
   -- Physics & Parameterization             1.255
   -- Diagnostics Out                        0.000
  => GEOS-Chem Column                      279.882
  ===> Total Chemistry                     285.312
  => WRF                                  2972.842
  ===> Total WRF-GC                       3258.154
 max optd  1.9364301E+31
 max taucldi  4.1486807E-02
 max taucldw  3.1981726E-05
 Switching is not necessary as we are already
 in the right domain!
 GIGC_Chunk_Run: Running for in-PET grid #           1
 GIGC_Chunk_Run: Received new grid IM, JM, LM =          15           9
          49
 =================================================
 W R F - G C   T I M E R S
    Domain           1 (Units: s)
 =================================================
  => Coupler Component                       5.470
   -- Physics & Parameterization             1.264
   -- Diagnostics Out                        0.000
  => GEOS-Chem Column                      280.931
  ===> Total Chemistry                     286.401
  => WRF                                  2991.375
  ===> Total WRF-GC                       3277.776
 max optd  1.9364301E+31
 max taucldi  4.1294698E-02
 max taucldw  3.2009575E-05
 Switching is not necessary as we are already
 in the right domain!
 GIGC_Chunk_Run: Running for in-PET grid #           1
 GIGC_Chunk_Run: Received new grid IM, JM, LM =          15           9
          49
 =================================================
 W R F - G C   T I M E R S
    Domain           1 (Units: s)
 =================================================
  => Coupler Component                       5.510
   -- Physics & Parameterization             1.272
   -- Diagnostics Out                        0.000
  => GEOS-Chem Column                      281.985
  ===> Total Chemistry                     287.495
  => WRF                                  3009.971
  ===> Total WRF-GC                       3297.466
 max optd  1.9364301E+31
 max taucldi  4.1341819E-02
 max taucldw  3.2031949E-05
 Switching is not necessary as we are already
 in the right domain!
 GIGC_Chunk_Run: Running for in-PET grid #           1
 GIGC_Chunk_Run: Received new grid IM, JM, LM =          15           9
          49
 =================================================
 W R F - G C   T I M E R S
    Domain           1 (Units: s)
 =================================================
  => Coupler Component                       5.552
   -- Physics & Parameterization             1.281
   -- Diagnostics Out                        0.000
  => GEOS-Chem Column                      283.028
  ===> Total Chemistry                     288.580
  => WRF                                  3028.637
  ===> Total WRF-GC                       3317.217
 max optd  1.9364301E+31
 max taucldi  4.1326471E-02
 max taucldw  3.2054799E-05
 Switching is not necessary as we are already
 in the right domain!
 GIGC_Chunk_Run: Running for in-PET grid #           1
 GIGC_Chunk_Run: Received new grid IM, JM, LM =          15           9
          49
 =================================================
 W R F - G C   T I M E R S
    Domain           1 (Units: s)
 =================================================
  => Coupler Component                       5.593
   -- Physics & Parameterization             1.290
   -- Diagnostics Out                        0.000
  => GEOS-Chem Column                      284.074
  ===> Total Chemistry                     289.667
  => WRF                                  3047.557
  ===> Total WRF-GC                       3337.224
 max optd  1.9364301E+31
 max taucldi  4.1098341E-02
 max taucldw  3.2084103E-05
 Switching is not necessary as we are already
 in the right domain!
 GIGC_Chunk_Run: Running for in-PET grid #           1
 GIGC_Chunk_Run: Received new grid IM, JM, LM =          15           9
          49
 =================================================
 W R F - G C   T I M E R S
    Domain           1 (Units: s)
 =================================================
  => Coupler Component                       5.631
   -- Physics & Parameterization             1.299
   -- Diagnostics Out                        0.000
  => GEOS-Chem Column                      285.126
  ===> Total Chemistry                     290.758
  => WRF                                  3066.365
  ===> Total WRF-GC                       3357.123
 max optd  1.9364301E+31
 max taucldi  4.1265160E-02
 max taucldw  3.2128355E-05
 Switching is not necessary as we are already
 in the right domain!
 GIGC_Chunk_Run: Running for in-PET grid #           1
 GIGC_Chunk_Run: Received new grid IM, JM, LM =          15           9
          49
 =================================================
 W R F - G C   T I M E R S
    Domain           1 (Units: s)
 =================================================
  => Coupler Component                       5.667
   -- Physics & Parameterization             1.308
   -- Diagnostics Out                        0.000
  => GEOS-Chem Column                      286.152
  ===> Total Chemistry                     291.819
  => WRF                                  3085.140
  ===> Total WRF-GC                       3376.959
d01 2018-01-01_12:00:00 wrf: SUCCESS COMPLETE WRF
