taskid: 4462 hostname: ip-172-31-15-63
Quilting with   1 groups of   0 I/O tasks.
 Ntasks in X           64 , ntasks in Y           72
--- WARNING: traj_opt is zero, but num_traj is not zero; setting num_traj to zero.
--- NOTE: sst_update is 0, setting io_form_auxinput4 = 0 and auxinput4_interval = 0 for all domains
--- NOTE: grid_fdda is 0 for domain      1, setting gfdda interval and ending time to 0 for that domain.
--- NOTE: both grid_sfdda and pxlsm_soil_nudge are 0 for domain      1, setting sgfdda interval and ending time to 0 for that domain.
--- NOTE: obs_nudge_opt is 0 for domain      1, setting obs nudging interval and ending time to 0 for that domain.
--- NOTE: bl_pbl_physics /= 4, implies mfshconv must be 0, resetting
Need MYNN PBL for icloud_bl = 1, resetting to 0
*************************************
No physics suite selected.
Physics options will be used directly from the namelist.
*************************************
--- NOTE: RRTMG radiation is in use, setting:  levsiz=59, alevsiz=12, no_src_types=6
--- NOTE: num_soil_layers has been set to      4
WRF V3.9.1.1 MODEL
 *************************************
 Parent domain
 ids,ide,jds,jde            1         950           1         650
 ims,ime,jms,jme          674         702         616         638
 ips,ipe,jps,jpe          681         695         623         631
 *************************************
DYNAMICS OPTION: Eulerian Mass Coordinate
   alloc_space_field: domain            1 ,              203623800  bytes allocated
  med_initialdata_input: calling input_input
Max map factor in domain 1 =  1.40. Scale the dt in the model accordingly.
INPUT LandUse = "USGS"
 LANDUSE TYPE = "USGS" FOUND          33  CATEGORIES           2  SEASONS WATER CATEGORY =           16  SNOW CATEGORY =           24
INITIALIZE THREE Noah LSM RELATED TABLES
*****************************************************************
  __          _______  ______       _____  _____ _    _ _____
  \ \        / /  __ \|  ____|     / ____|/ ____| |  | |  __ \
   \ \  /\  / /| |__) | |__ ______| |  __| |    | |__| | |__) |
    \ \/  \/ / |  _  /|  __|______| | |_ | |    |  __  |  ___/
     \  /\  /  | | \ \| |         | |__| | |____| |  | | |
      \/  \/   |_|  \_\_|          \_____|\_____|_|  |_|_|
*****************************************************************
         WRF-GC MODEL, VERSION 1811.11 - WRF BINDINGS
 For errors, suggestions & feedback email linhaipeng@pku.edu.cn
*****************************************************************
    This is domain            1
 ### GIGC_Stateful_Mod: Root CPU, after READ_INPUT_FILE
  Linoz Data:  O3 climatology :                  z*=10, 12, ..., 58                             2.700E-08 1.083E-05
  Linoz Data:  Temperature climatology :         z*=10, 12, ..., 58                             1.859E+02 2.904E+02
  Linoz Data:  Column O3 above box climalology : z*=10, 12, ..., 58                             7.538E-02 3.770E+02
  Linoz Data:  P-L O3 climatology (mr/s):        z*=10, 12, ..., 58                            -1.590E-10 2.835E-11
  Linoz Data:  d(P-L)/dO3 (1/s) :                z*=10, 12, ..., 58                            -8.386E-04 7.556E-09
  Linoz Data:  d(P-L)/dT (mr/K) :                z*=10, 12, ..., 58                            -5.742E-12 4.615E-14
  Linoz Data:  d(P-L)/d(column O3) (mr/DU) :     z*=10, 12, ..., 58                            -1.921E-12 5.038E-10
 ### GIGC_Stateful_Mod: Root CPU, after LINOZ_READ
 %%%%%%%%% GIGC IN-PET GRID SWITCHING HACKS %%%%%%%%%
     (Not very) Proudly brought to you by hplin      
 Some debug information:
 ID:           1
 IM, JM, LM:          15           9          49  will be set as PAR
 Allocs: CMN T GC F
 RC at entry-point:           0
 %%%%%%%%%%%%%%%%%%%%%%%%%%%%%%%%%%%%%%%%%%%%%%%%%%%%
 No need to switch HcoState for ID           1
 Exit RC:            0
 %%%%%%%%%    FINISHED GIGC_Switch_Dims    %%%%%%%%%
 GIGC_Chunk_Init: Received new grid IM, JM, LM =          15           9
          49
     ### GIGC_INIT_SIMULATION: after Input_Opt% setups
     ### GIGC_INIT_SIMULATION: after GC_Init_All
     ### GIGC_INIT_SIMULATION: after GC_Init_Extra
     ### GIGC_INIT_SIMULATION: after INIT_FJX
 # GIGC_CHUNK_MOD: after SV save, ID =           1
 WRFGC chemics_init: Following information regarding Input_Opt% (for all doms)
 After domain           1
 HPC:  T
 LPRT:  F
 DoConv:  T
 DoDryDep:  T
 DoEmis:  T
 DoChem:  T
 DoTurb:  T
 DoWetDep:  T

 tropopause_init: DONE intialized domain            1

 mediation_integrate: med_read_wrf_chem_emissions: Open file wrfchemi_00z_d01
 HOURLY EMISSIONS UPDATE TIME        0.0       0.0
mediation_integrate: med_read_wrf_chem_emissions: Read emissions for time 2018-01-01_00:00:00
open_aux_u : error opening wrffirechemi_d01_2018-01-01_00:00:00 for reading. 100
open_aux_u : error opening wrfchemi_gocart_bg_d01 for reading. 100
d01 2018-01-01_00:00:00 Input data processed for aux input   8 for domain   1
open_aux_u : error opening wrfchemv_d01 for reading. 100
 Tile Strategy is not specified. Assuming 1D-Y
WRF TILE   1 IS    681 IE    695 JS    623 JE    631
WRF NUMBER OF TILES =   1
 max optd  8.0467263E+30
 max taucldi  0.0000000E+00
 max taucldw  0.0000000E+00
 =================================================
 W R F - G C   T I M E R S
    Domain           1 (Units: s)
 =================================================
  => Coupler Component                       0.035
   -- Physics & Parameterization             0.001
   -- Diagnostics Out                        0.000
  => GEOS-Chem Column                        0.000
  ===> Total Chemistry                       0.035
  => WRF                                     0.000
  ===> Total WRF-GC                          0.035
 max optd  8.0467263E+30
 max taucldi  1.0000006E-14
 max taucldw  1.0000006E-14
 %%%%%%%%% GIGC IN-PET GRID SWITCHING HACKS %%%%%%%%%
     (Not very) Proudly brought to you by hplin      
 Some debug information:
 ID:           1
 IM, JM, LM:          15           9          49  will be set as PAR
 Allocs: CMN T GC T
 RC at entry-point:           0
 %%%%%%%%%%%%%%%%%%%%%%%%%%%%%%%%%%%%%%%%%%%%%%%%%%%%
 No need to switch HcoState for ID           1
 Debug HcoState nSpc, NX, NY, NZ         163          15           9          49
 Exit RC:            0
 %%%%%%%%%    FINISHED GIGC_Switch_Dims    %%%%%%%%%
 GIGC_Chunk_Run: Running for in-PET grid #           1
 GIGC_Chunk_Run: Received new grid IM, JM, LM =          15           9
          49
HEMCO: Opening /fsx/HEMCO/BIOFUEL/v2014-07/biofuel.geos.4x5.nc
HEMCO: Opening /fsx/HEMCO/BROMINE/v2015-02/Bromocarb_Liang2010.nc
HEMCO: Opening /fsx/HEMCO/ACET/v2014-07/ACET_seawater.generic.1x1.nc
HEMCO: Opening /fsx/HEMCO/SOILNOX/v2014-07/DepReservoirDefault.nc
HEMCO: Opening /fsx/HEMCO/SOILNOX/v2014-07/soilNOx.landtype.generic.025x025.1L.nc
HEMCO: Opening /fsx/HEMCO/SOILNOX/v2014-07/soilNOx.climate.generic.05x05.nc
HEMCO: Opening /fsx/HEMCO/DUST_DEAD/v2014-07/dst_tibds.geos.4x5.nc
HEMCO: Opening /fsx/HEMCO/DUST_DEAD/v2014-07/GOCART_src_fn.geos.4x5.nc
HEMCO: Opening /fsx/HEMCO/MEGAN/v2018-05/MEGAN2.1_EF.geos.025x03125.nc
HEMCO: Opening /fsx/HEMCO/MEGAN/v2017-07/CLM4_PFT.geos.025x03125.nc
HEMCO: Opening /fsx/HEMCO/TIMEZONES/v2015-02/timezones_voronoi_1x1.nc
HEMCO: Opening /fsx/HEMCO/STRAT/v2015-01/Bry/GEOSCCM_Bry.200701.day.nc
HEMCO: Opening /fsx/HEMCO/STRAT/v2015-01/Bry/GEOSCCM_Bry.200701.night.nc
HEMCO: Opening /fsx/HEMCO/OMOC/v2018-01/OMOC.DJF.01x01.nc
HEMCO: Opening /fsx/HEMCO/OMOC/v2018-01/OMOC.MAM.01x01.nc
HEMCO: Opening /fsx/HEMCO/OMOC/v2018-01/OMOC.JJA.01x01.nc
HEMCO: Opening /fsx/HEMCO/OMOC/v2018-01/OMOC.SON.01x01.nc
HEMCO: Opening /fsx/HEMCO/AnnualScalar/v2014-07/AnnualScalar.geos.1x1.nc
HEMCO: Opening /fsx/HEMCO/EDGARv42/v2015-02/NO/EDGAR_hourly_NOxScal.nc
HEMCO: Opening /fsx/HEMCO/MASKS/v2018-09/EMEP_mask.geos.1x1.20151222.nc
HEMCO: Opening /fsx/HEMCO/MASKS/v2018-09/Canada_mask.geos.1x1.nc
HEMCO: Opening /fsx/HEMCO/MASKS/v2018-09/SE_Asia_mask.generic.1x1.nc
HEMCO: Opening /fsx/HEMCO/MASKS/v2018-09/MIX_Asia_mask.generic.025x025.nc
HEMCO: Opening /fsx/HEMCO/MASKS/v2018-09/CONUS_Mask.01x01.nc
HEMCO: Opening /fsx/HEMCO/MASKS/v2018-09/AF_LANDMASK.geos.05x0666.global.nc
HEMCO: Opening /fsx/HEMCO/MASKS/v2018-09/China_mask.generic.1x1.nc
HEMCO: Opening /fsx/HEMCO/MASKS/v2018-09/India_mask.generic.1x1.nc
HEMCO: Opening /fsx/HEMCO/AnnualScalar/v2014-07/AnnualScalar.geos.1x1.nc
HEMCO: Opening /fsx/HEMCO/NH3/v2014-07/NH3_geos.4x5.nc
HEMCO: Opening /fsx/HEMCO/NH3/v2018-04/NH3_Arctic_seabirds.nc
HEMCO: Opening /fsx/HEMCO/CEDS/v2018-08/2014/NO-em-anthro_CMIP_CEDS_2014.nc
HEMCO: Opening /fsx/HEMCO/CEDS/v2018-08/2014/CO-em-anthro_CMIP_CEDS_2014.nc
HEMCO: Opening /fsx/HEMCO/CEDS/v2018-08/2014/SO2-em-anthro_CMIP_CEDS_2014.nc
HEMCO: Opening /fsx/HEMCO/CEDS/v2018-08/2014/NH3-em-anthro_CMIP_CEDS_2014.nc
HEMCO: Opening /fsx/HEMCO/CEDS/v2018-08/2014/BC-em-anthro_CMIP_CEDS_2014.nc
HEMCO: Opening /fsx/HEMCO/CEDS/v2018-08/2014/OC-em-anthro_CMIP_CEDS_2014.nc
HEMCO: Opening /fsx/HEMCO/CEDS/v2018-08/2014/EOH-em-anthro_CMIP_CEDS_2014.nc
HEMCO: Opening /fsx/HEMCO/CEDS/v2018-08/2014/C2H6-em-anthro_CMIP_CEDS_2014.nc
HEMCO: Opening /fsx/HEMCO/CEDS/v2018-08/2014/C3H8-em-anthro_CMIP_CEDS_2014.nc
HEMCO: Opening /fsx/HEMCO/CEDS/v2018-08/2014/ALK4_butanes-em-anthro_CMIP_CEDS_2014.nc
HEMCO: Opening /fsx/HEMCO/CEDS/v2018-08/2014/ALK4_pentanes-em-anthro_CMIP_CEDS_2014.nc
HEMCO: Opening /fsx/HEMCO/CEDS/v2018-08/2014/ALK4_hexanes-em-anthro_CMIP_CEDS_2014.nc
HEMCO: Opening /fsx/HEMCO/CEDS/v2018-08/2014/PRPE-em-anthro_CMIP_CEDS_2014.nc
HEMCO: Opening /fsx/HEMCO/CEDS/v2018-08/2014/BENZ-em-anthro_CMIP_CEDS_2014.nc
HEMCO: Opening /fsx/HEMCO/CEDS/v2018-08/2014/TOLU-em-anthro_CMIP_CEDS_2014.nc
HEMCO: Opening /fsx/HEMCO/CEDS/v2018-08/2014/XYLE-em-anthro_CMIP_CEDS_2014.nc
HEMCO: Opening /fsx/HEMCO/CEDS/v2018-08/2014/CH2O-em-anthro_CMIP_CEDS_2014.nc
HEMCO: Opening /fsx/HEMCO/CEDS/v2018-08/2014/ALD2-em-anthro_CMIP_CEDS_2014.nc
HEMCO: Opening /fsx/HEMCO/CEDS/v2018-08/2014/MEK-em-anthro_CMIP_CEDS_2014.nc
HEMCO: Opening /fsx/HEMCO/CEDS/v2018-08/2014/HCOOH-em-anthro_CMIP_CEDS_2014.nc
HEMCO: Opening /fsx/HEMCO/C2H6_2010/v2017-05/C2H6_global_anth_biof.201001.nc
HEMCO: Opening /fsx/HEMCO/NEI2011/v2017-02-MM/01/NEI11_0.1x0.1_201101_monmean.nc
HEMCO: Opening /fsx/HEMCO/NEI2011/v2017-02-MM/01/NEI11_0.1x0.1_201101_monmean_egu.nc
HEMCO: Opening /fsx/HEMCO/NEI2011/v2017-02-MM/01/NEI11_0.1x0.1_201101_monmean_egupk.nc
HEMCO: Opening /fsx/HEMCO/NEI2011/v2017-02-MM/01/NEI11_0.1x0.1_201101_monmean_oilgas.nc
HEMCO: Opening /fsx/HEMCO/NEI2011/v2017-02-MM/01/NEI11_0.1x0.1_201101_monmean_othpt.nc
HEMCO: Opening /fsx/HEMCO/NEI2011/v2017-02-MM/01/NEI11_0.1x0.1_201101_monmean_ptnonipm.nc
HEMCO: Opening /fsx/HEMCO/IODINE/v2017-09/CH3I_monthly_emissions_Ordonez_2012_COARDS.nc
HEMCO: Opening /fsx/HEMCO/IODINE/v2017-09/CH2I2_monthly_emissions_Ordonez_2012_COARDS.nc
HEMCO: Opening /fsx/HEMCO/IODINE/v2017-09/CH2ICl_monthly_emissions_Ordonez_2012_COARDS.nc
HEMCO: Opening /fsx/HEMCO/IODINE/v2017-09/CH2IBr_monthly_emissions_Ordonez_2012_COARDS.nc
HEMCO: Opening /fsx/HEMCO/CEDS/v2018-08/2014/CO-em-anthro_CMIP_CEDS_2014.nc
HEMCO: Opening /fsx/HEMCO/CEDS/v2018-08/2014/SO2-em-anthro_CMIP_CEDS_2014.nc
HEMCO: Opening /fsx/HEMCO/CEDS/v2018-08/2014/NH3-em-anthro_CMIP_CEDS_2014.nc
HEMCO: Opening /fsx/HEMCO/CEDS/v2018-08/2014/BC-em-anthro_CMIP_CEDS_2014.nc
HEMCO: Opening /fsx/HEMCO/CEDS/v2018-08/2014/OC-em-anthro_CMIP_CEDS_2014.nc
HEMCO: Opening /fsx/HEMCO/CEDS/v2018-08/2014/EOH-em-anthro_CMIP_CEDS_2014.nc
HEMCO: Opening /fsx/HEMCO/CEDS/v2018-08/2014/C2H6-em-anthro_CMIP_CEDS_2014.nc
HEMCO: Opening /fsx/HEMCO/CEDS/v2018-08/2014/C3H8-em-anthro_CMIP_CEDS_2014.nc
HEMCO: Opening /fsx/HEMCO/CEDS/v2018-08/2014/ALK4_butanes-em-anthro_CMIP_CEDS_2014.nc
HEMCO: Opening /fsx/HEMCO/CEDS/v2018-08/2014/ALK4_pentanes-em-anthro_CMIP_CEDS_2014.nc
HEMCO: Opening /fsx/HEMCO/CEDS/v2018-08/2014/ALK4_hexanes-em-anthro_CMIP_CEDS_2014.nc
HEMCO: Opening /fsx/HEMCO/CEDS/v2018-08/2014/PRPE-em-anthro_CMIP_CEDS_2014.nc
HEMCO: Opening /fsx/HEMCO/CEDS/v2018-08/2014/BENZ-em-anthro_CMIP_CEDS_2014.nc
HEMCO: Opening /fsx/HEMCO/CEDS/v2018-08/2014/TOLU-em-anthro_CMIP_CEDS_2014.nc
HEMCO: Opening /fsx/HEMCO/CEDS/v2018-08/2014/XYLE-em-anthro_CMIP_CEDS_2014.nc
HEMCO: Opening /fsx/HEMCO/CEDS/v2018-08/2014/CH2O-em-anthro_CMIP_CEDS_2014.nc
HEMCO: Opening /fsx/HEMCO/CEDS/v2018-08/2014/ALD2-em-anthro_CMIP_CEDS_2014.nc
HEMCO: Opening /fsx/HEMCO/CEDS/v2018-08/2014/MEK-em-anthro_CMIP_CEDS_2014.nc
HEMCO: Opening /fsx/HEMCO/CEDS/v2018-08/2014/HCOOH-em-anthro_CMIP_CEDS_2014.nc
HEMCO: Opening /fsx/HEMCO/CEDS/v2018-08/2014/NO-em-anthro_CMIP_CEDS_2014.nc
HEMCO: Opening /fsx/HEMCO/AEIC/v2015-01/AEIC.47L.gen.1x1.nc
HEMCO: Opening /fsx/HEMCO/ALD2/v2017-03/resp.geos.2x25.nc
HEMCO: Opening /fsx/HEMCO/DMS/v2015-07/DMS_lana.geos.1x1.nc
HEMCO: Opening /fsx/HEMCO/ALD2/v2017-03/ALD2_seawater.geos.2x25.nc
HEMCO: Opening /fsx/HEMCO/DUST_DEAD/v2014-07/dst_tvbds.geos.4x5.nc
HEMCO: Opening /fsx/HEMCO/DUST_DEAD/v2018-04/PM25FINE_ECLIPSE_2015.geos.2x25.nc
HEMCO: Opening /fsx/HEMCO/SOA/v2014-07/NVOC.geos.1x1.nc
HEMCO: Opening /fsx/HEMCO/GFED4/v2015-10/2016/GFED4_gen.025x025.201601.nc
HEMCO: Opening /fsx/HEMCO/UVALBEDO/v2015-03/uvalbedo.geos.2x25.nc
HEMCO: Opening /fsx/HEMCO/GMI/v2015-02/gmi.clim.ACET.geos5.2x25.nc
HEMCO: Opening /fsx/HEMCO/GMI/v2015-02/gmi.clim.ACTA.geos5.2x25.nc
HEMCO: Opening /fsx/HEMCO/GMI/v2015-02/gmi.clim.ALD2.geos5.2x25.nc
HEMCO: Opening /fsx/HEMCO/GMI/v2015-02/gmi.clim.ALK4.geos5.2x25.nc
HEMCO: Opening /fsx/HEMCO/GMI/v2015-02/gmi.clim.C2H6.geos5.2x25.nc
HEMCO: Opening /fsx/HEMCO/GMI/v2015-02/gmi.clim.C3H8.geos5.2x25.nc
HEMCO: Opening /fsx/HEMCO/GMI/v2015-02/gmi.clim.CCl4.geos5.2x25.nc
HEMCO: Opening /fsx/HEMCO/GMI/v2015-02/gmi.clim.CF2Cl2.geos5.2x25.nc
HEMCO: Opening /fsx/HEMCO/GMI/v2015-02/gmi.clim.CF2ClBr.geos5.2x25.nc
HEMCO: Opening /fsx/HEMCO/GMI/v2015-02/gmi.clim.CFC113.geos5.2x25.nc
HEMCO: Opening /fsx/HEMCO/GMI/v2015-02/gmi.clim.CFC114.geos5.2x25.nc
HEMCO: Opening /fsx/HEMCO/GMI/v2015-02/gmi.clim.CFC115.geos5.2x25.nc
HEMCO: Opening /fsx/HEMCO/GMI/v2015-02/gmi.clim.CFCl3.geos5.2x25.nc
HEMCO: Opening /fsx/HEMCO/GMI/v2015-02/gmi.clim.CH2O.geos5.2x25.nc
HEMCO: Opening /fsx/HEMCO/GMI/v2015-02/gmi.clim.CH3CCl3.geos5.2x25.nc
HEMCO: Opening /fsx/HEMCO/GMI/v2015-02/gmi.clim.CH3Cl.geos5.2x25.nc
HEMCO: Opening /fsx/HEMCO/GMI/v2015-02/gmi.clim.CH4.geos5.2x25.nc
HEMCO: Opening /fsx/HEMCO/GMI/v2015-02/gmi.clim.CO.geos5.2x25.nc
HEMCO: Opening /fsx/HEMCO/GMI/v2015-02/gmi.clim.Cl.geos5.2x25.nc
HEMCO: Opening /fsx/HEMCO/GMI/v2015-02/gmi.clim.Cl2.geos5.2x25.nc
HEMCO: Opening /fsx/HEMCO/GMI/v2015-02/gmi.clim.Cl2O2.geos5.2x25.nc
HEMCO: Opening /fsx/HEMCO/GMI/v2015-02/gmi.clim.ClO.geos5.2x25.nc
HEMCO: Opening /fsx/HEMCO/GMI/v2015-02/gmi.clim.EOH.geos5.2x25.nc
HEMCO: Opening /fsx/HEMCO/GMI/v2015-02/gmi.clim.GLYC.geos5.2x25.nc
HEMCO: Opening /fsx/HEMCO/GMI/v2015-02/gmi.clim.GLYX.geos5.2x25.nc
HEMCO: Opening /fsx/HEMCO/GMI/v2015-02/gmi.clim.H2402.geos5.2x25.nc
HEMCO: Opening /fsx/HEMCO/GMI/v2015-02/gmi.clim.H2O.geos5.2x25.nc
HEMCO: Opening /fsx/HEMCO/GMI/v2015-02/gmi.clim.H2O2.geos5.2x25.nc
HEMCO: Opening /fsx/HEMCO/GMI/v2015-02/gmi.clim.HAC.geos5.2x25.nc
HEMCO: Opening /fsx/HEMCO/GMI/v2015-02/gmi.clim.HCFC141b.geos5.2x25.nc
HEMCO: Opening /fsx/HEMCO/GMI/v2015-02/gmi.clim.HCFC142b.geos5.2x25.nc
HEMCO: Opening /fsx/HEMCO/GMI/v2015-02/gmi.clim.HCFC22.geos5.2x25.nc
HEMCO: Opening /fsx/HEMCO/GMI/v2015-02/gmi.clim.HCOOH.geos5.2x25.20170108.nc
HEMCO: Opening /fsx/HEMCO/GMI/v2015-02/gmi.clim.HCl.geos5.2x25.nc
HEMCO: Opening /fsx/HEMCO/GMI/v2015-02/gmi.clim.HNO2.geos5.2x25.nc
HEMCO: Opening /fsx/HEMCO/GMI/v2015-02/gmi.clim.HNO3.geos5.2x25.nc
HEMCO: Opening /fsx/HEMCO/GMI/v2015-02/gmi.clim.HNO4.geos5.2x25.nc
HEMCO: Opening /fsx/HEMCO/GMI/v2015-02/gmi.clim.HOCl.geos5.2x25.nc
HEMCO: Opening /fsx/HEMCO/GMI/v2015-02/gmi.clim.ISN1.geos5.2x25.nc
HEMCO: Opening /fsx/HEMCO/GMI/v2015-02/gmi.clim.ISOP.geos5.2x25.nc
HEMCO: Opening /fsx/HEMCO/GMI/v2015-02/gmi.clim.MACR.geos5.2x25.nc
HEMCO: Opening /fsx/HEMCO/GMI/v2015-02/gmi.clim.MAP.geos5.2x25.nc
HEMCO: Opening /fsx/HEMCO/GMI/v2015-02/gmi.clim.MEK.geos5.2x25.nc
HEMCO: Opening /fsx/HEMCO/GMI/v2015-02/gmi.clim.MGLY.geos5.2x25.nc
HEMCO: Opening /fsx/HEMCO/GMI/v2015-02/gmi.clim.MP.geos5.2x25.nc
HEMCO: Opening /fsx/HEMCO/GMI/v2015-02/gmi.clim.MVK.geos5.2x25.nc
HEMCO: Opening /fsx/HEMCO/GMI/v2015-02/gmi.clim.N2O.geos5.2x25.nc
HEMCO: Opening /fsx/HEMCO/GMI/v2015-02/gmi.clim.N2O5.geos5.2x25.nc
HEMCO: Opening /fsx/HEMCO/GMI/v2015-02/gmi.clim.NO.geos5.2x25.nc
HEMCO: Opening /fsx/HEMCO/GMI/v2015-02/gmi.clim.NO2.geos5.2x25.nc
HEMCO: Opening /fsx/HEMCO/GMI/v2015-02/gmi.clim.NO3.geos5.2x25.nc
HEMCO: Opening /fsx/HEMCO/GMI/v2015-02/gmi.clim.O3.geos5.2x25.nc
HEMCO: Opening /fsx/HEMCO/GMI/v2015-02/gmi.clim.OClO.geos5.2x25.nc
HEMCO: Opening /fsx/HEMCO/GMI/v2015-02/gmi.clim.PAN.geos5.2x25.nc
HEMCO: Opening /fsx/HEMCO/GMI/v2015-02/gmi.clim.NPMN.geos5.2x25.nc
HEMCO: Opening /fsx/HEMCO/GMI/v2015-02/gmi.clim.IPMN.geos5.2x25.nc
HEMCO: Opening /fsx/HEMCO/GMI/v2015-02/gmi.clim.PPN.geos5.2x25.nc
HEMCO: Opening /fsx/HEMCO/GMI/v2015-02/gmi.clim.PRPE.geos5.2x25.nc
HEMCO: Opening /fsx/HEMCO/GMI/v2015-02/gmi.clim.R4N2.geos5.2x25.nc
HEMCO: Opening /fsx/HEMCO/GMI/v2015-02/gmi.clim.RCHO.geos5.2x25.nc
HEMCO: Opening /fsx/HEMCO/GMI/v2015-02/gmi.clim.RIPA.geos5.2x25.nc
HEMCO: Opening /fsx/HEMCO/GMI/v2015-02/gmi.clim.RIPB.geos5.2x25.nc
HEMCO: Opening /fsx/HEMCO/GMI/v2015-02/gmi.clim.RIPD.geos5.2x25.nc
HEMCO: Opening /fsx/HEMCO/GMI/v2015-02/gmi.clim.OH.geos5.2x25.nc
HEMCO: Opening /fsx/HEMCO/NOAA_GMD/v2018-01/monthly.gridded.surface.methane.1979-2020.1x1.nc
HEMCO: Opening /fsx/HEMCO/GEIA/v2014-07/GEIA_monthscal.generic.1x1.nc
HEMCO: Opening /fsx/HEMCO/EMEP/v2015-03/EMEP.Seasonal.geos.1x1.nc
HEMCO: Opening /fsx/HEMCO/BROMINE/v2015-02/BromoCarb_Season.nc
HEMCO: Opening /fsx/HEMCO/EDGARv43/v2016-11/EDGAR_v43.Seasonal.1x1.nc
HEMCO: Opening /fsx/HEMCO/NEI2005/v2014-09/scaling/NEI99.dow.geos.1x1.nc
HEMCO: Opening /fsx/HEMCO/VOLCANO/v2015-02/2009/volc_so2_gen.1x1.47L.200901.nc
HEMCO: Opening /fsx/HEMCO/SOILNOX/v2014-07/soilNOx.fert_res.generic.05x05.nc
 vdinti: pbl height will be limited to bottom           25  model levels. top is
     431.250100000000       hpa
 =================================================
 W R F - G C   T I M E R S
    Domain           1 (Units: s)
 =================================================
  => Coupler Component                       0.057
   -- Physics & Parameterization             0.010
   -- Diagnostics Out                        0.000
  => GEOS-Chem Column                      138.180
  ===> Total Chemistry                     138.237
  => WRF                                    17.472
  ===> Total WRF-GC                        155.709
 max optd  3.8043249E+37
 max taucldi  1.3792035E-08
 max taucldw  1.5742867E-08
 Switching is not necessary as we are already
 in the right domain!
 GIGC_Chunk_Run: Running for in-PET grid #           1
 GIGC_Chunk_Run: Received new grid IM, JM, LM =          15           9
          49
 =================================================
 W R F - G C   T I M E R S
    Domain           1 (Units: s)
 =================================================
  => Coupler Component                       0.098
   -- Physics & Parameterization             0.019
   -- Diagnostics Out                        0.000
  => GEOS-Chem Column                      139.268
  ===> Total Chemistry                     139.366
  => WRF                                    52.883
  ===> Total WRF-GC                        192.249
 max optd  3.8043249E+37
 max taucldi  2.6142573E-08
 max taucldw  2.8962868E-08
 Switching is not necessary as we are already
 in the right domain!
 GIGC_Chunk_Run: Running for in-PET grid #           1
 GIGC_Chunk_Run: Received new grid IM, JM, LM =          15           9
          49
 =================================================
 W R F - G C   T I M E R S
    Domain           1 (Units: s)
 =================================================
  => Coupler Component                       0.133
   -- Physics & Parameterization             0.028
   -- Diagnostics Out                        0.000
  => GEOS-Chem Column                      140.293
  ===> Total Chemistry                     140.426
  => WRF                                    73.645
  ===> Total WRF-GC                        214.071
 max optd  3.8043249E+37
 max taucldi  3.7515161E-08
 max taucldw  4.0379120E-08
 Switching is not necessary as we are already
 in the right domain!
 GIGC_Chunk_Run: Running for in-PET grid #           1
 GIGC_Chunk_Run: Received new grid IM, JM, LM =          15           9
          49
 =================================================
 W R F - G C   T I M E R S
    Domain           1 (Units: s)
 =================================================
  => Coupler Component                       0.172
   -- Physics & Parameterization             0.037
   -- Diagnostics Out                        0.000
  => GEOS-Chem Column                      141.303
  ===> Total Chemistry                     141.475
  => WRF                                    92.715
  ===> Total WRF-GC                        234.190
 max optd  3.8043249E+37
 max taucldi  4.8096435E-08
 max taucldw  4.9939267E-08
 Switching is not necessary as we are already
 in the right domain!
 GIGC_Chunk_Run: Running for in-PET grid #           1
 GIGC_Chunk_Run: Received new grid IM, JM, LM =          15           9
          49
 =================================================
 W R F - G C   T I M E R S
    Domain           1 (Units: s)
 =================================================
  => Coupler Component                       0.214
   -- Physics & Parameterization             0.046
   -- Diagnostics Out                        0.000
  => GEOS-Chem Column                      142.329
  ===> Total Chemistry                     142.543
  => WRF                                   111.330
  ===> Total WRF-GC                        253.873
 max optd  3.8043249E+37
 max taucldi  5.8508906E-08
 max taucldw  6.1710580E-08
 Switching is not necessary as we are already
 in the right domain!
 GIGC_Chunk_Run: Running for in-PET grid #           1
 GIGC_Chunk_Run: Received new grid IM, JM, LM =          15           9
          49
 =================================================
 W R F - G C   T I M E R S
    Domain           1 (Units: s)
 =================================================
  => Coupler Component                       0.254
   -- Physics & Parameterization             0.055
   -- Diagnostics Out                        0.000
  => GEOS-Chem Column                      143.371
  ===> Total Chemistry                     143.626
  => WRF                                   129.809
  ===> Total WRF-GC                        273.435
 max optd  3.8043249E+37
 max taucldi  6.8837252E-08
 max taucldw  7.2943756E-08
 Switching is not necessary as we are already
 in the right domain!
 GIGC_Chunk_Run: Running for in-PET grid #           1
 GIGC_Chunk_Run: Received new grid IM, JM, LM =          15           9
          49
 =================================================
 W R F - G C   T I M E R S
    Domain           1 (Units: s)
 =================================================
  => Coupler Component                       0.297
   -- Physics & Parameterization             0.064
   -- Diagnostics Out                        0.000
  => GEOS-Chem Column                      144.404
  ===> Total Chemistry                     144.701
  => WRF                                   148.251
  ===> Total WRF-GC                        292.952
 max optd  3.8043249E+37
 max taucldi  7.9383199E-08
 max taucldw  8.3338890E-08
 Switching is not necessary as we are already
 in the right domain!
 GIGC_Chunk_Run: Running for in-PET grid #           1
 GIGC_Chunk_Run: Received new grid IM, JM, LM =          15           9
          49
 =================================================
 W R F - G C   T I M E R S
    Domain           1 (Units: s)
 =================================================
  => Coupler Component                       0.340
   -- Physics & Parameterization             0.073
   -- Diagnostics Out                        0.000
  => GEOS-Chem Column                      145.432
  ===> Total Chemistry                     145.771
  => WRF                                   166.647
  ===> Total WRF-GC                        312.418
 max optd  3.8043249E+37
 max taucldi  8.9916547E-08
 max taucldw  9.3622177E-08
 Switching is not necessary as we are already
 in the right domain!
 GIGC_Chunk_Run: Running for in-PET grid #           1
 GIGC_Chunk_Run: Received new grid IM, JM, LM =          15           9
          49
 =================================================
 W R F - G C   T I M E R S
    Domain           1 (Units: s)
 =================================================
  => Coupler Component                       0.384
   -- Physics & Parameterization             0.082
   -- Diagnostics Out                        0.000
  => GEOS-Chem Column                      146.452
  ===> Total Chemistry                     146.836
  => WRF                                   185.044
  ===> Total WRF-GC                        331.880
 max optd  3.8043249E+37
 max taucldi  9.9851576E-08
 max taucldw  1.0368794E-07
 Switching is not necessary as we are already
 in the right domain!
 GIGC_Chunk_Run: Running for in-PET grid #           1
 GIGC_Chunk_Run: Received new grid IM, JM, LM =          15           9
          49
 =================================================
 W R F - G C   T I M E R S
    Domain           1 (Units: s)
 =================================================
  => Coupler Component                       0.425
   -- Physics & Parameterization             0.091
   -- Diagnostics Out                        0.000
  => GEOS-Chem Column                      147.488
  ===> Total Chemistry                     147.913
  => WRF                                   203.509
  ===> Total WRF-GC                        351.422
 max optd  3.8043249E+37
 max taucldi  1.0974788E-07
 max taucldw  1.1219517E-07
 Switching is not necessary as we are already
 in the right domain!
 GIGC_Chunk_Run: Running for in-PET grid #           1
 GIGC_Chunk_Run: Received new grid IM, JM, LM =          15           9
          49
 =================================================
 W R F - G C   T I M E R S
    Domain           1 (Units: s)
 =================================================
  => Coupler Component                       0.465
   -- Physics & Parameterization             0.100
   -- Diagnostics Out                        0.000
  => GEOS-Chem Column                      148.538
  ===> Total Chemistry                     149.003
  => WRF                                   221.881
  ===> Total WRF-GC                        370.884
 max optd  3.8043249E+37
 max taucldi  1.1952484E-07
 max taucldw  1.2151902E-07
 Switching is not necessary as we are already
 in the right domain!
 GIGC_Chunk_Run: Running for in-PET grid #           1
 GIGC_Chunk_Run: Received new grid IM, JM, LM =          15           9
          49
 =================================================
 W R F - G C   T I M E R S
    Domain           1 (Units: s)
 =================================================
  => Coupler Component                       0.507
   -- Physics & Parameterization             0.109
   -- Diagnostics Out                        0.000
  => GEOS-Chem Column                      149.571
  ===> Total Chemistry                     150.078
  => WRF                                   240.123
  ===> Total WRF-GC                        390.201
 HOURLY EMISSIONS UPDATE TIME     3600.0       0.0
mediation_integrate: med_read_wrf_chem_emissions: Read emissions for time 2018-01-01_01:00:00
 max optd  3.8043249E+37
 max taucldi  1.2851518E-07
 max taucldw  1.3217786E-07
 Switching is not necessary as we are already
 in the right domain!
 GIGC_Chunk_Run: Running for in-PET grid #           1
 GIGC_Chunk_Run: Received new grid IM, JM, LM =          15           9
          49
 =================================================
 W R F - G C   T I M E R S
    Domain           1 (Units: s)
 =================================================
  => Coupler Component                       0.550
   -- Physics & Parameterization             0.117
   -- Diagnostics Out                        0.000
  => GEOS-Chem Column                      150.595
  ===> Total Chemistry                     151.145
  => WRF                                   258.457
  ===> Total WRF-GC                        409.602
 max optd  3.8043249E+37
 max taucldi  1.3691817E-07
 max taucldw  1.4254559E-07
 Switching is not necessary as we are already
 in the right domain!
 GIGC_Chunk_Run: Running for in-PET grid #           1
 GIGC_Chunk_Run: Received new grid IM, JM, LM =          15           9
          49
 =================================================
 W R F - G C   T I M E R S
    Domain           1 (Units: s)
 =================================================
  => Coupler Component                       0.590
   -- Physics & Parameterization             0.126
   -- Diagnostics Out                        0.000
  => GEOS-Chem Column                      151.632
  ===> Total Chemistry                     152.222
  => WRF                                   276.792
  ===> Total WRF-GC                        429.015
 max optd  3.8043249E+37
 max taucldi  1.4483790E-07
 max taucldw  1.4916590E-07
 Switching is not necessary as we are already
 in the right domain!
 GIGC_Chunk_Run: Running for in-PET grid #           1
 GIGC_Chunk_Run: Received new grid IM, JM, LM =          15           9
          49
 =================================================
 W R F - G C   T I M E R S
    Domain           1 (Units: s)
 =================================================
  => Coupler Component                       0.632
   -- Physics & Parameterization             0.135
   -- Diagnostics Out                        0.000
  => GEOS-Chem Column                      152.662
  ===> Total Chemistry                     153.294
  => WRF                                   294.998
  ===> Total WRF-GC                        448.292
 max optd  3.8043249E+37
 max taucldi  1.5173987E-07
 max taucldw  1.5267054E-07
 Switching is not necessary as we are already
 in the right domain!
 GIGC_Chunk_Run: Running for in-PET grid #           1
 GIGC_Chunk_Run: Received new grid IM, JM, LM =          15           9
          49
 =================================================
 W R F - G C   T I M E R S
    Domain           1 (Units: s)
 =================================================
  => Coupler Component                       0.675
   -- Physics & Parameterization             0.144
   -- Diagnostics Out                        0.000
  => GEOS-Chem Column                      153.691
  ===> Total Chemistry                     154.366
  => WRF                                   313.294
  ===> Total WRF-GC                        467.660
 max optd  3.8043249E+37
 max taucldi  1.5752434E-07
 max taucldw  1.5790336E-07
 Switching is not necessary as we are already
 in the right domain!
 GIGC_Chunk_Run: Running for in-PET grid #           1
 GIGC_Chunk_Run: Received new grid IM, JM, LM =          15           9
          49
 =================================================
 W R F - G C   T I M E R S
    Domain           1 (Units: s)
 =================================================
  => Coupler Component                       0.711
   -- Physics & Parameterization             0.153
   -- Diagnostics Out                        0.000
  => GEOS-Chem Column                      154.719
  ===> Total Chemistry                     155.431
  => WRF                                   331.549
  ===> Total WRF-GC                        486.979
 max optd  3.8043249E+37
 max taucldi  1.6189250E-07
 max taucldw  1.6297113E-07
 Switching is not necessary as we are already
 in the right domain!
 GIGC_Chunk_Run: Running for in-PET grid #           1
 GIGC_Chunk_Run: Received new grid IM, JM, LM =          15           9
          49
 =================================================
 W R F - G C   T I M E R S
    Domain           1 (Units: s)
 =================================================
  => Coupler Component                       0.751
   -- Physics & Parameterization             0.162
   -- Diagnostics Out                        0.000
  => GEOS-Chem Column                      155.741
  ===> Total Chemistry                     156.492
  => WRF                                   349.773
  ===> Total WRF-GC                        506.265
 max optd  3.8043249E+37
 max taucldi  1.6607406E-07
 max taucldw  1.6843829E-07
 Switching is not necessary as we are already
 in the right domain!
 GIGC_Chunk_Run: Running for in-PET grid #           1
 GIGC_Chunk_Run: Received new grid IM, JM, LM =          15           9
          49
 =================================================
 W R F - G C   T I M E R S
    Domain           1 (Units: s)
 =================================================
  => Coupler Component                       0.788
   -- Physics & Parameterization             0.171
   -- Diagnostics Out                        0.000
  => GEOS-Chem Column                      156.768
  ===> Total Chemistry                     157.556
  => WRF                                   368.050
  ===> Total WRF-GC                        525.606
 max optd  3.8043249E+37
 max taucldi  1.6938874E-07
 max taucldw  1.7217984E-07
 Switching is not necessary as we are already
 in the right domain!
 GIGC_Chunk_Run: Running for in-PET grid #           1
 GIGC_Chunk_Run: Received new grid IM, JM, LM =          15           9
          49
 =================================================
 W R F - G C   T I M E R S
    Domain           1 (Units: s)
 =================================================
  => Coupler Component                       0.832
   -- Physics & Parameterization             0.180
   -- Diagnostics Out                        0.000
  => GEOS-Chem Column                      157.793
  ===> Total Chemistry                     158.625
  => WRF                                   386.433
  ===> Total WRF-GC                        545.058
 max optd  3.8043249E+37
 max taucldi  1.7169243E-07
 max taucldw  1.7446034E-07
 Switching is not necessary as we are already
 in the right domain!
 GIGC_Chunk_Run: Running for in-PET grid #           1
 GIGC_Chunk_Run: Received new grid IM, JM, LM =          15           9
          49
 =================================================
 W R F - G C   T I M E R S
    Domain           1 (Units: s)
 =================================================
  => Coupler Component                       0.866
   -- Physics & Parameterization             0.189
   -- Diagnostics Out                        0.000
  => GEOS-Chem Column                      158.811
  ===> Total Chemistry                     159.677
  => WRF                                   404.589
  ===> Total WRF-GC                        564.266
 max optd  3.8043249E+37
 max taucldi  1.7276743E-07
 max taucldw  1.7394079E-07
 Switching is not necessary as we are already
 in the right domain!
 GIGC_Chunk_Run: Running for in-PET grid #           1
 GIGC_Chunk_Run: Received new grid IM, JM, LM =          15           9
          49
 =================================================
 W R F - G C   T I M E R S
    Domain           1 (Units: s)
 =================================================
  => Coupler Component                       0.905
   -- Physics & Parameterization             0.198
   -- Diagnostics Out                        0.000
  => GEOS-Chem Column                      159.852
  ===> Total Chemistry                     160.757
  => WRF                                   422.774
  ===> Total WRF-GC                        583.531
 max optd  3.8043249E+37
 max taucldi  1.7276803E-07
 max taucldw  1.7360813E-07
 Switching is not necessary as we are already
 in the right domain!
 GIGC_Chunk_Run: Running for in-PET grid #           1
 GIGC_Chunk_Run: Received new grid IM, JM, LM =          15           9
          49
 =================================================
 W R F - G C   T I M E R S
    Domain           1 (Units: s)
 =================================================
  => Coupler Component                       0.941
   -- Physics & Parameterization             0.207
   -- Diagnostics Out                        0.000
  => GEOS-Chem Column                      160.881
  ===> Total Chemistry                     161.822
  => WRF                                   441.082
  ===> Total WRF-GC                        602.904
 max optd  3.8043249E+37
 max taucldi  1.7210324E-07
 max taucldw  1.7194671E-07
 Switching is not necessary as we are already
 in the right domain!
 GIGC_Chunk_Run: Running for in-PET grid #           1
 GIGC_Chunk_Run: Received new grid IM, JM, LM =          15           9
          49
 =================================================
 W R F - G C   T I M E R S
    Domain           1 (Units: s)
 =================================================
  => Coupler Component                       0.983
   -- Physics & Parameterization             0.215
   -- Diagnostics Out                        0.000
  => GEOS-Chem Column                      161.921
  ===> Total Chemistry                     162.903
  => WRF                                   459.273
  ===> Total WRF-GC                        622.176
 HOURLY EMISSIONS UPDATE TIME     7200.0       0.0
mediation_integrate: med_read_wrf_chem_emissions: Read emissions for time 2018-01-01_02:00:00
 max optd  3.8043249E+37
 max taucldi  1.7117657E-07
 max taucldw  1.6966618E-07
 Switching is not necessary as we are already
 in the right domain!
 GIGC_Chunk_Run: Running for in-PET grid #           1
 GIGC_Chunk_Run: Received new grid IM, JM, LM =          15           9
          49
 =================================================
 W R F - G C   T I M E R S
    Domain           1 (Units: s)
 =================================================
  => Coupler Component                       1.020
   -- Physics & Parameterization             0.224
   -- Diagnostics Out                        0.000
  => GEOS-Chem Column                      162.948
  ===> Total Chemistry                     163.968
  => WRF                                   477.507
  ===> Total WRF-GC                        641.475
 max optd  3.8043249E+37
 max taucldi  1.6997058E-07
 max taucldw  1.6728114E-07
 Switching is not necessary as we are already
 in the right domain!
 GIGC_Chunk_Run: Running for in-PET grid #           1
 GIGC_Chunk_Run: Received new grid IM, JM, LM =          15           9
          49
 =================================================
 W R F - G C   T I M E R S
    Domain           1 (Units: s)
 =================================================
  => Coupler Component                       1.060
   -- Physics & Parameterization             0.233
   -- Diagnostics Out                        0.000
  => GEOS-Chem Column                      163.971
  ===> Total Chemistry                     165.031
  => WRF                                   495.780
  ===> Total WRF-GC                        660.811
 max optd  3.8043249E+37
 max taucldi  1.6883509E-07
 max taucldw  1.6716321E-07
 Switching is not necessary as we are already
 in the right domain!
 GIGC_Chunk_Run: Running for in-PET grid #           1
 GIGC_Chunk_Run: Received new grid IM, JM, LM =          15           9
          49
 =================================================
 W R F - G C   T I M E R S
    Domain           1 (Units: s)
 =================================================
  => Coupler Component                       1.098
   -- Physics & Parameterization             0.241
   -- Diagnostics Out                        0.000
  => GEOS-Chem Column                      165.017
  ===> Total Chemistry                     166.115
  => WRF                                   513.904
  ===> Total WRF-GC                        680.019
 max optd  3.8043249E+37
 max taucldi  1.6809869E-07
 max taucldw  1.6897107E-07
 Switching is not necessary as we are already
 in the right domain!
 GIGC_Chunk_Run: Running for in-PET grid #           1
 GIGC_Chunk_Run: Received new grid IM, JM, LM =          15           9
          49
 =================================================
 W R F - G C   T I M E R S
    Domain           1 (Units: s)
 =================================================
  => Coupler Component                       1.139
   -- Physics & Parameterization             0.251
   -- Diagnostics Out                        0.000
  => GEOS-Chem Column                      166.051
  ===> Total Chemistry                     167.191
  => WRF                                   532.017
  ===> Total WRF-GC                        699.208
 max optd  3.8043249E+37
 max taucldi  1.6900515E-07
 max taucldw  1.7042353E-07
 Switching is not necessary as we are already
 in the right domain!
 GIGC_Chunk_Run: Running for in-PET grid #           1
 GIGC_Chunk_Run: Received new grid IM, JM, LM =          15           9
          49
 =================================================
 W R F - G C   T I M E R S
    Domain           1 (Units: s)
 =================================================
  => Coupler Component                       1.179
   -- Physics & Parameterization             0.259
   -- Diagnostics Out                        0.000
  => GEOS-Chem Column                      167.095
  ===> Total Chemistry                     168.273
  => WRF                                   550.179
  ===> Total WRF-GC                        718.452
 max optd  3.8043249E+37
 max taucldi  1.7012069E-07
 max taucldw  1.7150006E-07
 Switching is not necessary as we are already
 in the right domain!
 GIGC_Chunk_Run: Running for in-PET grid #           1
 GIGC_Chunk_Run: Received new grid IM, JM, LM =          15           9
          49
 =================================================
 W R F - G C   T I M E R S
    Domain           1 (Units: s)
 =================================================
  => Coupler Component                       1.216
   -- Physics & Parameterization             0.269
   -- Diagnostics Out                        0.000
  => GEOS-Chem Column                      168.131
  ===> Total Chemistry                     169.348
  => WRF                                   568.326
  ===> Total WRF-GC                        737.674
 max optd  3.8043249E+37
 max taucldi  1.7127100E-07
 max taucldw  1.7228463E-07
 Switching is not necessary as we are already
 in the right domain!
 GIGC_Chunk_Run: Running for in-PET grid #           1
 GIGC_Chunk_Run: Received new grid IM, JM, LM =          15           9
          49
 =================================================
 W R F - G C   T I M E R S
    Domain           1 (Units: s)
 =================================================
  => Coupler Component                       1.258
   -- Physics & Parameterization             0.277
   -- Diagnostics Out                        0.000
  => GEOS-Chem Column                      169.159
  ===> Total Chemistry                     170.417
  => WRF                                   586.492
  ===> Total WRF-GC                        756.909
 max optd  3.8043249E+37
 max taucldi  1.7384959E-07
 max taucldw  1.7329063E-07
 Switching is not necessary as we are already
 in the right domain!
 GIGC_Chunk_Run: Running for in-PET grid #           1
 GIGC_Chunk_Run: Received new grid IM, JM, LM =          15           9
          49
 =================================================
 W R F - G C   T I M E R S
    Domain           1 (Units: s)
 =================================================
  => Coupler Component                       1.296
   -- Physics & Parameterization             0.286
   -- Diagnostics Out                        0.000
  => GEOS-Chem Column                      170.186
  ===> Total Chemistry                     171.482
  => WRF                                   604.601
  ===> Total WRF-GC                        776.083
 max optd  3.8043249E+37
 max taucldi  1.7701356E-07
 max taucldw  1.7416882E-07
 Switching is not necessary as we are already
 in the right domain!
 GIGC_Chunk_Run: Running for in-PET grid #           1
 GIGC_Chunk_Run: Received new grid IM, JM, LM =          15           9
          49
 =================================================
 W R F - G C   T I M E R S
    Domain           1 (Units: s)
 =================================================
  => Coupler Component                       1.339
   -- Physics & Parameterization             0.295
   -- Diagnostics Out                        0.000
  => GEOS-Chem Column                      171.220
  ===> Total Chemistry                     172.558
  => WRF                                   622.715
  ===> Total WRF-GC                        795.273
 max optd  3.8043249E+37
 max taucldi  1.7984621E-07
 max taucldw  1.7453681E-07
 Switching is not necessary as we are already
 in the right domain!
 GIGC_Chunk_Run: Running for in-PET grid #           1
 GIGC_Chunk_Run: Received new grid IM, JM, LM =          15           9
          49
 =================================================
 W R F - G C   T I M E R S
    Domain           1 (Units: s)
 =================================================
  => Coupler Component                       1.376
   -- Physics & Parameterization             0.304
   -- Diagnostics Out                        0.000
  => GEOS-Chem Column                      172.247
  ===> Total Chemistry                     173.623
  => WRF                                   640.892
  ===> Total WRF-GC                        814.515
 max optd  3.8043249E+37
 max taucldi  1.8220379E-07
 max taucldw  1.7502346E-07
 Switching is not necessary as we are already
 in the right domain!
 GIGC_Chunk_Run: Running for in-PET grid #           1
 GIGC_Chunk_Run: Received new grid IM, JM, LM =          15           9
          49
 =================================================
 W R F - G C   T I M E R S
    Domain           1 (Units: s)
 =================================================
  => Coupler Component                       1.412
   -- Physics & Parameterization             0.313
   -- Diagnostics Out                        0.000
  => GEOS-Chem Column                      173.278
  ===> Total Chemistry                     174.690
  => WRF                                   658.980
  ===> Total WRF-GC                        833.670
 max optd  3.8043249E+37
 max taucldi  1.8415832E-07
 max taucldw  1.7514164E-07
 Switching is not necessary as we are already
 in the right domain!
 GIGC_Chunk_Run: Running for in-PET grid #           1
 GIGC_Chunk_Run: Received new grid IM, JM, LM =          15           9
          49
 =================================================
 W R F - G C   T I M E R S
    Domain           1 (Units: s)
 =================================================
  => Coupler Component                       1.453
   -- Physics & Parameterization             0.322
   -- Diagnostics Out                        0.000
  => GEOS-Chem Column                      174.305
  ===> Total Chemistry                     175.758
  => WRF                                   677.082
  ===> Total WRF-GC                        852.840
 HOURLY EMISSIONS UPDATE TIME    10800.0       0.0
mediation_integrate: med_read_wrf_chem_emissions: Read emissions for time 2018-01-01_03:00:00
 max optd  3.8043249E+37
 max taucldi  1.8566011E-07
 max taucldw  1.7546763E-07
 Switching is not necessary as we are already
 in the right domain!
 GIGC_Chunk_Run: Running for in-PET grid #           1
 GIGC_Chunk_Run: Received new grid IM, JM, LM =          15           9
          49
 =================================================
 W R F - G C   T I M E R S
    Domain           1 (Units: s)
 =================================================
  => Coupler Component                       1.491
   -- Physics & Parameterization             0.331
   -- Diagnostics Out                        0.000
  => GEOS-Chem Column                      175.328
  ===> Total Chemistry                     176.819
  => WRF                                   695.239
  ===> Total WRF-GC                        872.059
 max optd  3.8043249E+37
 max taucldi  1.8731794E-07
 max taucldw  1.7660439E-07
 Switching is not necessary as we are already
 in the right domain!
 GIGC_Chunk_Run: Running for in-PET grid #           1
 GIGC_Chunk_Run: Received new grid IM, JM, LM =          15           9
          49
 =================================================
 W R F - G C   T I M E R S
    Domain           1 (Units: s)
 =================================================
  => Coupler Component                       1.533
   -- Physics & Parameterization             0.340
   -- Diagnostics Out                        0.000
  => GEOS-Chem Column                      176.361
  ===> Total Chemistry                     177.894
  => WRF                                   713.358
  ===> Total WRF-GC                        891.252
 max optd  3.8043249E+37
 max taucldi  1.8910626E-07
 max taucldw  1.7799523E-07
 Switching is not necessary as we are already
 in the right domain!
 GIGC_Chunk_Run: Running for in-PET grid #           1
 GIGC_Chunk_Run: Received new grid IM, JM, LM =          15           9
          49
 =================================================
 W R F - G C   T I M E R S
    Domain           1 (Units: s)
 =================================================
  => Coupler Component                       1.574
   -- Physics & Parameterization             0.348
   -- Diagnostics Out                        0.000
  => GEOS-Chem Column                      177.387
  ===> Total Chemistry                     178.961
  => WRF                                   731.479
  ===> Total WRF-GC                        910.440
 max optd  3.8043249E+37
 max taucldi  1.9077795E-07
 max taucldw  1.8009132E-07
 Switching is not necessary as we are already
 in the right domain!
 GIGC_Chunk_Run: Running for in-PET grid #           1
 GIGC_Chunk_Run: Received new grid IM, JM, LM =          15           9
          49
 =================================================
 W R F - G C   T I M E R S
    Domain           1 (Units: s)
 =================================================
  => Coupler Component                       1.611
   -- Physics & Parameterization             0.357
   -- Diagnostics Out                        0.000
  => GEOS-Chem Column                      178.425
  ===> Total Chemistry                     180.036
  => WRF                                   749.600
  ===> Total WRF-GC                        929.636
 max optd  3.8043249E+37
 max taucldi  1.9275683E-07
 max taucldw  1.8340708E-07
 Switching is not necessary as we are already
 in the right domain!
 GIGC_Chunk_Run: Running for in-PET grid #           1
 GIGC_Chunk_Run: Received new grid IM, JM, LM =          15           9
          49
 =================================================
 W R F - G C   T I M E R S
    Domain           1 (Units: s)
 =================================================
  => Coupler Component                       1.651
   -- Physics & Parameterization             0.366
   -- Diagnostics Out                        0.000
  => GEOS-Chem Column                      179.465
  ===> Total Chemistry                     181.116
  => WRF                                   767.681
  ===> Total WRF-GC                        948.797
 max optd  3.8043249E+37
 max taucldi  1.9529550E-07
 max taucldw  1.8826063E-07
 Switching is not necessary as we are already
 in the right domain!
 GIGC_Chunk_Run: Running for in-PET grid #           1
 GIGC_Chunk_Run: Received new grid IM, JM, LM =          15           9
          49
 =================================================
 W R F - G C   T I M E R S
    Domain           1 (Units: s)
 =================================================
  => Coupler Component                       1.694
   -- Physics & Parameterization             0.375
   -- Diagnostics Out                        0.000
  => GEOS-Chem Column                      180.493
  ===> Total Chemistry                     182.187
  => WRF                                   786.044
  ===> Total WRF-GC                        968.231
 max optd  3.8043249E+37
 max taucldi  1.9918130E-07
 max taucldw  1.9276889E-07
 Switching is not necessary as we are already
 in the right domain!
 GIGC_Chunk_Run: Running for in-PET grid #           1
 GIGC_Chunk_Run: Received new grid IM, JM, LM =          15           9
          49
 =================================================
 W R F - G C   T I M E R S
    Domain           1 (Units: s)
 =================================================
  => Coupler Component                       1.735
   -- Physics & Parameterization             0.384
   -- Diagnostics Out                        0.000
  => GEOS-Chem Column                      181.525
  ===> Total Chemistry                     183.260
  => WRF                                   804.237
  ===> Total WRF-GC                        987.497
 max optd  3.8043249E+37
 max taucldi  2.0300730E-07
 max taucldw  1.9710484E-07
 Switching is not necessary as we are already
 in the right domain!
 GIGC_Chunk_Run: Running for in-PET grid #           1
 GIGC_Chunk_Run: Received new grid IM, JM, LM =          15           9
          49
 =================================================
 W R F - G C   T I M E R S
    Domain           1 (Units: s)
 =================================================
  => Coupler Component                       1.771
   -- Physics & Parameterization             0.393
   -- Diagnostics Out                        0.000
  => GEOS-Chem Column                      182.543
  ===> Total Chemistry                     184.315
  => WRF                                   822.308
  ===> Total WRF-GC                       1006.623
 max optd  3.8043249E+37
 max taucldi  2.0687592E-07
 max taucldw  2.0118537E-07
 Switching is not necessary as we are already
 in the right domain!
 GIGC_Chunk_Run: Running for in-PET grid #           1
 GIGC_Chunk_Run: Received new grid IM, JM, LM =          15           9
          49
 =================================================
 W R F - G C   T I M E R S
    Domain           1 (Units: s)
 =================================================
  => Coupler Component                       1.812
   -- Physics & Parameterization             0.402
   -- Diagnostics Out                        0.000
  => GEOS-Chem Column                      183.566
  ===> Total Chemistry                     185.378
  => WRF                                   840.544
  ===> Total WRF-GC                       1025.921
 max optd  3.8043249E+37
 max taucldi  2.1059495E-07
 max taucldw  2.0534117E-07
 Switching is not necessary as we are already
 in the right domain!
 GIGC_Chunk_Run: Running for in-PET grid #           1
 GIGC_Chunk_Run: Received new grid IM, JM, LM =          15           9
          49
 =================================================
 W R F - G C   T I M E R S
    Domain           1 (Units: s)
 =================================================
  => Coupler Component                       1.852
   -- Physics & Parameterization             0.411
   -- Diagnostics Out                        0.000
  => GEOS-Chem Column                      184.597
  ===> Total Chemistry                     186.449
  => WRF                                   858.720
  ===> Total WRF-GC                       1045.169
 max optd  3.8043249E+37
 max taucldi  2.1426658E-07
 max taucldw  2.0928638E-07
 Switching is not necessary as we are already
 in the right domain!
 GIGC_Chunk_Run: Running for in-PET grid #           1
 GIGC_Chunk_Run: Received new grid IM, JM, LM =          15           9
          49
 =================================================
 W R F - G C   T I M E R S
    Domain           1 (Units: s)
 =================================================
  => Coupler Component                       1.889
   -- Physics & Parameterization             0.419
   -- Diagnostics Out                        0.000
  => GEOS-Chem Column                      185.632
  ===> Total Chemistry                     187.521
  => WRF                                   876.832
  ===> Total WRF-GC                       1064.353
 max optd  3.8043249E+37
 max taucldi  2.1780401E-07
 max taucldw  2.1295892E-07
 Switching is not necessary as we are already
 in the right domain!
 GIGC_Chunk_Run: Running for in-PET grid #           1
 GIGC_Chunk_Run: Received new grid IM, JM, LM =          15           9
          49
 =================================================
 W R F - G C   T I M E R S
    Domain           1 (Units: s)
 =================================================
  => Coupler Component                       1.924
   -- Physics & Parameterization             0.428
   -- Diagnostics Out                        0.000
  => GEOS-Chem Column                      186.659
  ===> Total Chemistry                     188.583
  => WRF                                   895.004
  ===> Total WRF-GC                       1083.587
 HOURLY EMISSIONS UPDATE TIME    14400.0       0.0
mediation_integrate: med_read_wrf_chem_emissions: Read emissions for time 2018-01-01_04:00:00
 max optd  3.8043249E+37
 max taucldi  2.2120564E-07
 max taucldw  2.1647195E-07
 Switching is not necessary as we are already
 in the right domain!
 GIGC_Chunk_Run: Running for in-PET grid #           1
 GIGC_Chunk_Run: Received new grid IM, JM, LM =          15           9
          49
 =================================================
 W R F - G C   T I M E R S
    Domain           1 (Units: s)
 =================================================
  => Coupler Component                       1.965
   -- Physics & Parameterization             0.437
   -- Diagnostics Out                        0.000
  => GEOS-Chem Column                      187.684
  ===> Total Chemistry                     189.649
  => WRF                                   913.171
  ===> Total WRF-GC                       1102.821
 max optd  3.8043249E+37
 max taucldi  2.2449636E-07
 max taucldw  2.1983743E-07
 Switching is not necessary as we are already
 in the right domain!
 GIGC_Chunk_Run: Running for in-PET grid #           1
 GIGC_Chunk_Run: Received new grid IM, JM, LM =          15           9
          49
 =================================================
 W R F - G C   T I M E R S
    Domain           1 (Units: s)
 =================================================
  => Coupler Component                       2.002
   -- Physics & Parameterization             0.446
   -- Diagnostics Out                        0.000
  => GEOS-Chem Column                      188.718
  ===> Total Chemistry                     190.720
  => WRF                                   931.332
  ===> Total WRF-GC                       1122.052
 max optd  3.8043249E+37
 max taucldi  2.2789183E-07
 max taucldw  2.2288125E-07
 Switching is not necessary as we are already
 in the right domain!
 GIGC_Chunk_Run: Running for in-PET grid #           1
 GIGC_Chunk_Run: Received new grid IM, JM, LM =          15           9
          49
 =================================================
 W R F - G C   T I M E R S
    Domain           1 (Units: s)
 =================================================
  => Coupler Component                       2.042
   -- Physics & Parameterization             0.455
   -- Diagnostics Out                        0.000
  => GEOS-Chem Column                      189.748
  ===> Total Chemistry                     191.790
  => WRF                                   949.580
  ===> Total WRF-GC                       1141.370
 max optd  3.8043249E+37
 max taucldi  2.3177253E-07
 max taucldw  2.2603002E-07
 Switching is not necessary as we are already
 in the right domain!
 GIGC_Chunk_Run: Running for in-PET grid #           1
 GIGC_Chunk_Run: Received new grid IM, JM, LM =          15           9
          49
 =================================================
 W R F - G C   T I M E R S
    Domain           1 (Units: s)
 =================================================
  => Coupler Component                       2.082
   -- Physics & Parameterization             0.464
   -- Diagnostics Out                        0.000
  => GEOS-Chem Column                      190.779
  ===> Total Chemistry                     192.861
  => WRF                                   967.715
  ===> Total WRF-GC                       1160.576
 max optd  3.8043249E+37
 max taucldi  2.3531587E-07
 max taucldw  2.2912910E-07
 Switching is not necessary as we are already
 in the right domain!
 GIGC_Chunk_Run: Running for in-PET grid #           1
 GIGC_Chunk_Run: Received new grid IM, JM, LM =          15           9
          49
 =================================================
 W R F - G C   T I M E R S
    Domain           1 (Units: s)
 =================================================
  => Coupler Component                       2.121
   -- Physics & Parameterization             0.473
   -- Diagnostics Out                        0.000
  => GEOS-Chem Column                      191.813
  ===> Total Chemistry                     193.935
  => WRF                                   985.886
  ===> Total WRF-GC                       1179.821
 max optd  3.8043249E+37
 max taucldi  2.3841014E-07
 max taucldw  2.3206809E-07
 Switching is not necessary as we are already
 in the right domain!
 GIGC_Chunk_Run: Running for in-PET grid #           1
 GIGC_Chunk_Run: Received new grid IM, JM, LM =          15           9
          49
 =================================================
 W R F - G C   T I M E R S
    Domain           1 (Units: s)
 =================================================
  => Coupler Component                       2.160
   -- Physics & Parameterization             0.481
   -- Diagnostics Out                        0.000
  => GEOS-Chem Column                      192.840
  ===> Total Chemistry                     195.000
  => WRF                                  1004.059
  ===> Total WRF-GC                       1199.059
 max optd  3.8043249E+37
 max taucldi  2.4105839E-07
 max taucldw  2.3482444E-07
 Switching is not necessary as we are already
 in the right domain!
 GIGC_Chunk_Run: Running for in-PET grid #           1
 GIGC_Chunk_Run: Received new grid IM, JM, LM =          15           9
          49
 =================================================
 W R F - G C   T I M E R S
    Domain           1 (Units: s)
 =================================================
  => Coupler Component                       2.199
   -- Physics & Parameterization             0.490
   -- Diagnostics Out                        0.000
  => GEOS-Chem Column                      193.888
  ===> Total Chemistry                     196.087
  => WRF                                  1022.274
  ===> Total WRF-GC                       1218.361
 max optd  3.8043249E+37
 max taucldi  2.4344416E-07
 max taucldw  2.3760754E-07
 Switching is not necessary as we are already
 in the right domain!
 GIGC_Chunk_Run: Running for in-PET grid #           1
 GIGC_Chunk_Run: Received new grid IM, JM, LM =          15           9
          49
 =================================================
 W R F - G C   T I M E R S
    Domain           1 (Units: s)
 =================================================
  => Coupler Component                       2.238
   -- Physics & Parameterization             0.499
   -- Diagnostics Out                        0.000
  => GEOS-Chem Column                      194.937
  ===> Total Chemistry                     197.176
  => WRF                                  1040.388
  ===> Total WRF-GC                       1237.564
 max optd  3.8043249E+37
 max taucldi  2.4543800E-07
 max taucldw  2.4046031E-07
 Switching is not necessary as we are already
 in the right domain!
 GIGC_Chunk_Run: Running for in-PET grid #           1
 GIGC_Chunk_Run: Received new grid IM, JM, LM =          15           9
          49
 =================================================
 W R F - G C   T I M E R S
    Domain           1 (Units: s)
 =================================================
  => Coupler Component                       2.280
   -- Physics & Parameterization             0.508
   -- Diagnostics Out                        0.000
  => GEOS-Chem Column                      195.967
  ===> Total Chemistry                     198.247
  => WRF                                  1058.539
  ===> Total WRF-GC                       1256.786
 max optd  3.8043249E+37
 max taucldi  2.4716454E-07
 max taucldw  2.4307604E-07
 Switching is not necessary as we are already
 in the right domain!
 GIGC_Chunk_Run: Running for in-PET grid #           1
 GIGC_Chunk_Run: Received new grid IM, JM, LM =          15           9
          49
 =================================================
 W R F - G C   T I M E R S
    Domain           1 (Units: s)
 =================================================
  => Coupler Component                       2.322
   -- Physics & Parameterization             0.517
   -- Diagnostics Out                        0.000
  => GEOS-Chem Column                      196.998
  ===> Total Chemistry                     199.320
  => WRF                                  1076.684
  ===> Total WRF-GC                       1276.004
 max optd  3.8043249E+37
 max taucldi  2.4871562E-07
 max taucldw  2.4542956E-07
 Switching is not necessary as we are already
 in the right domain!
 GIGC_Chunk_Run: Running for in-PET grid #           1
 GIGC_Chunk_Run: Received new grid IM, JM, LM =          15           9
          49
 =================================================
 W R F - G C   T I M E R S
    Domain           1 (Units: s)
 =================================================
  => Coupler Component                       2.358
   -- Physics & Parameterization             0.526
   -- Diagnostics Out                        0.000
  => GEOS-Chem Column                      198.020
  ===> Total Chemistry                     200.378
  => WRF                                  1094.798
  ===> Total WRF-GC                       1295.176
 max optd  3.8043249E+37
 max taucldi  2.4994711E-07
 max taucldw  2.4736519E-07
 Switching is not necessary as we are already
 in the right domain!
 GIGC_Chunk_Run: Running for in-PET grid #           1
 GIGC_Chunk_Run: Received new grid IM, JM, LM =          15           9
          49
 =================================================
 W R F - G C   T I M E R S
    Domain           1 (Units: s)
 =================================================
  => Coupler Component                       2.398
   -- Physics & Parameterization             0.535
   -- Diagnostics Out                        0.000
  => GEOS-Chem Column                      199.049
  ===> Total Chemistry                     201.447
  => WRF                                  1112.896
  ===> Total WRF-GC                       1314.343
 HOURLY EMISSIONS UPDATE TIME    18000.0       0.0
mediation_integrate: med_read_wrf_chem_emissions: Read emissions for time 2018-01-01_05:00:00
 max optd  3.8043249E+37
 max taucldi  2.5091373E-07
 max taucldw  2.4894575E-07
 Switching is not necessary as we are already
 in the right domain!
 GIGC_Chunk_Run: Running for in-PET grid #           1
 GIGC_Chunk_Run: Received new grid IM, JM, LM =          15           9
          49
 =================================================
 W R F - G C   T I M E R S
    Domain           1 (Units: s)
 =================================================
  => Coupler Component                       2.437
   -- Physics & Parameterization             0.543
   -- Diagnostics Out                        0.000
  => GEOS-Chem Column                      200.082
  ===> Total Chemistry                     202.519
  => WRF                                  1131.091
  ===> Total WRF-GC                       1333.610
 max optd  3.8043249E+37
 max taucldi  2.5168163E-07
 max taucldw  2.5026026E-07
 Switching is not necessary as we are already
 in the right domain!
 GIGC_Chunk_Run: Running for in-PET grid #           1
 GIGC_Chunk_Run: Received new grid IM, JM, LM =          15           9
          49
 =================================================
 W R F - G C   T I M E R S
    Domain           1 (Units: s)
 =================================================
  => Coupler Component                       2.476
   -- Physics & Parameterization             0.552
   -- Diagnostics Out                        0.000
  => GEOS-Chem Column                      201.113
  ===> Total Chemistry                     203.589
  => WRF                                  1149.205
  ===> Total WRF-GC                       1352.794
 max optd  3.8043249E+37
 max taucldi  2.5218540E-07
 max taucldw  2.5230813E-07
 Switching is not necessary as we are already
 in the right domain!
 GIGC_Chunk_Run: Running for in-PET grid #           1
 GIGC_Chunk_Run: Received new grid IM, JM, LM =          15           9
          49
 =================================================
 W R F - G C   T I M E R S
    Domain           1 (Units: s)
 =================================================
  => Coupler Component                       2.517
   -- Physics & Parameterization             0.561
   -- Diagnostics Out                        0.000
  => GEOS-Chem Column                      202.148
  ===> Total Chemistry                     204.665
  => WRF                                  1167.339
  ===> Total WRF-GC                       1372.004
 max optd  3.8043249E+37
 max taucldi  2.5249665E-07
 max taucldw  2.5546368E-07
 Switching is not necessary as we are already
 in the right domain!
 GIGC_Chunk_Run: Running for in-PET grid #           1
 GIGC_Chunk_Run: Received new grid IM, JM, LM =          15           9
          49
 =================================================
 W R F - G C   T I M E R S
    Domain           1 (Units: s)
 =================================================
  => Coupler Component                       2.558
   -- Physics & Parameterization             0.570
   -- Diagnostics Out                        0.000
  => GEOS-Chem Column                      203.187
  ===> Total Chemistry                     205.745
  => WRF                                  1185.491
  ===> Total WRF-GC                       1391.236
 max optd  3.8043249E+37
 max taucldi  2.5263910E-07
 max taucldw  2.5854155E-07
 Switching is not necessary as we are already
 in the right domain!
 GIGC_Chunk_Run: Running for in-PET grid #           1
 GIGC_Chunk_Run: Received new grid IM, JM, LM =          15           9
          49
 =================================================
 W R F - G C   T I M E R S
    Domain           1 (Units: s)
 =================================================
  => Coupler Component                       2.600
   -- Physics & Parameterization             0.579
   -- Diagnostics Out                        0.000
  => GEOS-Chem Column                      204.223
  ===> Total Chemistry                     206.823
  => WRF                                  1203.679
  ===> Total WRF-GC                       1410.503
 max optd  3.8043249E+37
 max taucldi  2.5257066E-07
 max taucldw  2.6136760E-07
 Switching is not necessary as we are already
 in the right domain!
 GIGC_Chunk_Run: Running for in-PET grid #           1
 GIGC_Chunk_Run: Received new grid IM, JM, LM =          15           9
          49
 =================================================
 W R F - G C   T I M E R S
    Domain           1 (Units: s)
 =================================================
  => Coupler Component                       2.648
   -- Physics & Parameterization             0.588
   -- Diagnostics Out                        0.000
  => GEOS-Chem Column                      205.247
  ===> Total Chemistry                     207.895
  => WRF                                  1221.774
  ===> Total WRF-GC                       1429.669
 max optd  3.8043249E+37
 max taucldi  2.5228613E-07
 max taucldw  2.6416711E-07
 Switching is not necessary as we are already
 in the right domain!
 GIGC_Chunk_Run: Running for in-PET grid #           1
 GIGC_Chunk_Run: Received new grid IM, JM, LM =          15           9
          49
 =================================================
 W R F - G C   T I M E R S
    Domain           1 (Units: s)
 =================================================
  => Coupler Component                       2.692
   -- Physics & Parameterization             0.597
   -- Diagnostics Out                        0.000
  => GEOS-Chem Column                      206.270
  ===> Total Chemistry                     208.963
  => WRF                                  1239.998
  ===> Total WRF-GC                       1448.960
 max optd  3.8043249E+37
 max taucldi  2.5179759E-07
 max taucldw  2.6692464E-07
 Switching is not necessary as we are already
 in the right domain!
 GIGC_Chunk_Run: Running for in-PET grid #           1
 GIGC_Chunk_Run: Received new grid IM, JM, LM =          15           9
          49
 =================================================
 W R F - G C   T I M E R S
    Domain           1 (Units: s)
 =================================================
  => Coupler Component                       2.730
   -- Physics & Parameterization             0.605
   -- Diagnostics Out                        0.000
  => GEOS-Chem Column                      207.298
  ===> Total Chemistry                     210.028
  => WRF                                  1258.135
  ===> Total WRF-GC                       1468.163
 max optd  3.8043249E+37
 max taucldi  2.5113124E-07
 max taucldw  2.6958105E-07
 Switching is not necessary as we are already
 in the right domain!
 GIGC_Chunk_Run: Running for in-PET grid #           1
 GIGC_Chunk_Run: Received new grid IM, JM, LM =          15           9
          49
 =================================================
 W R F - G C   T I M E R S
    Domain           1 (Units: s)
 =================================================
  => Coupler Component                       2.769
   -- Physics & Parameterization             0.614
   -- Diagnostics Out                        0.000
  => GEOS-Chem Column                      208.333
  ===> Total Chemistry                     211.101
  => WRF                                  1276.333
  ===> Total WRF-GC                       1487.434
 max optd  3.8043249E+37
 max taucldi  2.5025170E-07
 max taucldw  2.7247853E-07
 Switching is not necessary as we are already
 in the right domain!
 GIGC_Chunk_Run: Running for in-PET grid #           1
 GIGC_Chunk_Run: Received new grid IM, JM, LM =          15           9
          49
 =================================================
 W R F - G C   T I M E R S
    Domain           1 (Units: s)
 =================================================
  => Coupler Component                       2.809
   -- Physics & Parameterization             0.623
   -- Diagnostics Out                        0.000
  => GEOS-Chem Column                      209.368
  ===> Total Chemistry                     212.178
  => WRF                                  1294.757
  ===> Total WRF-GC                       1506.934
 max optd  3.8043249E+37
 max taucldi  2.4953124E-07
 max taucldw  2.7635448E-07
 Switching is not necessary as we are already
 in the right domain!
 GIGC_Chunk_Run: Running for in-PET grid #           1
 GIGC_Chunk_Run: Received new grid IM, JM, LM =          15           9
          49
 =================================================
 W R F - G C   T I M E R S
    Domain           1 (Units: s)
 =================================================
  => Coupler Component                       2.847
   -- Physics & Parameterization             0.632
   -- Diagnostics Out                        0.000
  => GEOS-Chem Column                      210.411
  ===> Total Chemistry                     213.258
  => WRF                                  1312.894
  ===> Total WRF-GC                       1526.152
 max optd  3.8043249E+37
 max taucldi  2.4887873E-07
 max taucldw  2.8004226E-07
 Switching is not necessary as we are already
 in the right domain!
 GIGC_Chunk_Run: Running for in-PET grid #           1
 GIGC_Chunk_Run: Received new grid IM, JM, LM =          15           9
          49
 =================================================
 W R F - G C   T I M E R S
    Domain           1 (Units: s)
 =================================================
  => Coupler Component                       2.882
   -- Physics & Parameterization             0.640
   -- Diagnostics Out                        0.000
  => GEOS-Chem Column                      211.454
  ===> Total Chemistry                     214.336
  => WRF                                  1331.044
  ===> Total WRF-GC                       1545.380
 HOURLY EMISSIONS UPDATE TIME    21600.0       0.0
mediation_integrate: med_read_wrf_chem_emissions: Read emissions for time 2018-01-01_06:00:00
 max optd  3.8043249E+37
 max taucldi  2.4804268E-07
 max taucldw  2.8347341E-07
 Switching is not necessary as we are already
 in the right domain!
 GIGC_Chunk_Run: Running for in-PET grid #           1
 GIGC_Chunk_Run: Received new grid IM, JM, LM =          15           9
          49
 =================================================
 W R F - G C   T I M E R S
    Domain           1 (Units: s)
 =================================================
  => Coupler Component                       2.923
   -- Physics & Parameterization             0.649
   -- Diagnostics Out                        0.000
  => GEOS-Chem Column                      212.499
  ===> Total Chemistry                     215.421
  => WRF                                  1789.729
  ===> Total WRF-GC                       2005.150
 max optd  3.8043249E+37
 max taucldi  2.4699008E-07
 max taucldw  2.8659477E-07
 Switching is not necessary as we are already
 in the right domain!
 GIGC_Chunk_Run: Running for in-PET grid #           1
 GIGC_Chunk_Run: Received new grid IM, JM, LM =          15           9
          49
 =================================================
 W R F - G C   T I M E R S
    Domain           1 (Units: s)
 =================================================
  => Coupler Component                       2.961
   -- Physics & Parameterization             0.657
   -- Diagnostics Out                        0.000
  => GEOS-Chem Column                      213.547
  ===> Total Chemistry                     216.508
  => WRF                                  1807.877
  ===> Total WRF-GC                       2024.385
 max optd  3.8043249E+37
 max taucldi  2.4591344E-07
 max taucldw  2.8946749E-07
 Switching is not necessary as we are already
 in the right domain!
 GIGC_Chunk_Run: Running for in-PET grid #           1
 GIGC_Chunk_Run: Received new grid IM, JM, LM =          15           9
          49
 =================================================
 W R F - G C   T I M E R S
    Domain           1 (Units: s)
 =================================================
  => Coupler Component                       3.000
   -- Physics & Parameterization             0.666
   -- Diagnostics Out                        0.000
  => GEOS-Chem Column                      214.577
  ===> Total Chemistry                     217.576
  => WRF                                  1826.167
  ===> Total WRF-GC                       2043.743
 max optd  3.8043249E+37
 max taucldi  2.4473232E-07
 max taucldw  2.9207766E-07
 Switching is not necessary as we are already
 in the right domain!
 GIGC_Chunk_Run: Running for in-PET grid #           1
 GIGC_Chunk_Run: Received new grid IM, JM, LM =          15           9
          49
 =================================================
 W R F - G C   T I M E R S
    Domain           1 (Units: s)
 =================================================
  => Coupler Component                       3.040
[...]
  => GEOS-Chem Column                      261.201
  ===> Total Chemistry                     265.979
  => WRF                                  2645.107
  ===> Total WRF-GC                       2911.086
 HOURLY EMISSIONS UPDATE TIME    36000.0       0.0
mediation_integrate: med_read_wrf_chem_emissions: Read emissions for time 2018-01-01_10:00:00
 max optd  3.8043249E+37
 max taucldi  2.5457740E-07
 max taucldw  3.6425880E-07
 Switching is not necessary as we are already
 in the right domain!
 GIGC_Chunk_Run: Running for in-PET grid #           1
 GIGC_Chunk_Run: Received new grid IM, JM, LM =          15           9
          49
 =================================================
 W R F - G C   T I M E R S
    Domain           1 (Units: s)
 =================================================
  => Coupler Component                       4.816
   -- Physics & Parameterization             1.071
   -- Diagnostics Out                        0.000
  => GEOS-Chem Column                      262.224
  ===> Total Chemistry                     267.040
  => WRF                                  2663.363
  ===> Total WRF-GC                       2930.403
 max optd  3.8043249E+37
 max taucldi  2.5747721E-07
 max taucldw  3.6502087E-07
 Switching is not necessary as we are already
 in the right domain!
 GIGC_Chunk_Run: Running for in-PET grid #           1
 GIGC_Chunk_Run: Received new grid IM, JM, LM =          15           9
          49
 =================================================
 W R F - G C   T I M E R S
    Domain           1 (Units: s)
 =================================================
  => Coupler Component                       4.857
   -- Physics & Parameterization             1.080
   -- Diagnostics Out                        0.000
  => GEOS-Chem Column                      263.253
  ===> Total Chemistry                     268.110
  => WRF                                  2681.549
  ===> Total WRF-GC                       2949.659
 max optd  3.8043249E+37
 max taucldi  4.8914026E-06
 max taucldw  3.6562201E-07
 Switching is not necessary as we are already
 in the right domain!
 GIGC_Chunk_Run: Running for in-PET grid #           1
 GIGC_Chunk_Run: Received new grid IM, JM, LM =          15           9
          49
 =================================================
 W R F - G C   T I M E R S
    Domain           1 (Units: s)
 =================================================
  => Coupler Component                       4.897
   -- Physics & Parameterization             1.089
   -- Diagnostics Out                        0.000
  => GEOS-Chem Column                      264.281
  ===> Total Chemistry                     269.178
  => WRF                                  2699.714
  ===> Total WRF-GC                       2968.892
 max optd  3.8043249E+37
 max taucldi  9.3534527E-06
 max taucldw  3.6614122E-07
 Switching is not necessary as we are already
 in the right domain!
 GIGC_Chunk_Run: Running for in-PET grid #           1
 GIGC_Chunk_Run: Received new grid IM, JM, LM =          15           9
          49
 =================================================
 W R F - G C   T I M E R S
    Domain           1 (Units: s)
 =================================================
  => Coupler Component                       4.942
   -- Physics & Parameterization             1.097
   -- Diagnostics Out                        0.000
  => GEOS-Chem Column                      265.303
  ===> Total Chemistry                     270.244
  => WRF                                  2717.969
  ===> Total WRF-GC                       2988.214
 max optd  3.8043249E+37
 max taucldi  1.8518560E-05
 max taucldw  3.6669297E-07
 Switching is not necessary as we are already
 in the right domain!
 GIGC_Chunk_Run: Running for in-PET grid #           1
 GIGC_Chunk_Run: Received new grid IM, JM, LM =          15           9
          49
 =================================================
 W R F - G C   T I M E R S
    Domain           1 (Units: s)
 =================================================
  => Coupler Component                       4.979
   -- Physics & Parameterization             1.106
   -- Diagnostics Out                        0.000
  => GEOS-Chem Column                      266.331
  ===> Total Chemistry                     271.310
  => WRF                                  2736.191
  ===> Total WRF-GC                       3007.500
 max optd  3.8043249E+37
 max taucldi  3.4513942E-05
 max taucldw  3.6727010E-07
 Switching is not necessary as we are already
 in the right domain!
 GIGC_Chunk_Run: Running for in-PET grid #           1
 GIGC_Chunk_Run: Received new grid IM, JM, LM =          15           9
          49
 =================================================
 W R F - G C   T I M E R S
    Domain           1 (Units: s)
 =================================================
  => Coupler Component                       5.019
   -- Physics & Parameterization             1.115
   -- Diagnostics Out                        0.000
  => GEOS-Chem Column                      267.356
  ===> Total Chemistry                     272.375
  => WRF                                  2754.321
  ===> Total WRF-GC                       3026.697
 max optd  3.8043249E+37
 max taucldi  3.8553477E-05
 max taucldw  3.6789379E-07
 Switching is not necessary as we are already
 in the right domain!
 GIGC_Chunk_Run: Running for in-PET grid #           1
 GIGC_Chunk_Run: Received new grid IM, JM, LM =          15           9
          49
 =================================================
 W R F - G C   T I M E R S
    Domain           1 (Units: s)
 =================================================
  => Coupler Component                       5.059
   -- Physics & Parameterization             1.124
   -- Diagnostics Out                        0.000
  => GEOS-Chem Column                      268.385
  ===> Total Chemistry                     273.444
  => WRF                                  2772.537
  ===> Total WRF-GC                       3045.981
 max optd  3.8043249E+37
 max taucldi  4.5962577E-05
 max taucldw  3.6859376E-07
 Switching is not necessary as we are already
 in the right domain!
 GIGC_Chunk_Run: Running for in-PET grid #           1
 GIGC_Chunk_Run: Received new grid IM, JM, LM =          15           9
          49
 =================================================
 W R F - G C   T I M E R S
    Domain           1 (Units: s)
 =================================================
  => Coupler Component                       5.099
   -- Physics & Parameterization             1.133
   -- Diagnostics Out                        0.000
  => GEOS-Chem Column                      269.429
  ===> Total Chemistry                     274.528
  => WRF                                  2790.723
  ===> Total WRF-GC                       3065.251
 max optd  3.8043249E+37
 max taucldi  5.4225271E-05
 max taucldw  3.6932073E-07
 Switching is not necessary as we are already
 in the right domain!
 GIGC_Chunk_Run: Running for in-PET grid #           1
 GIGC_Chunk_Run: Received new grid IM, JM, LM =          15           9
          49
 =================================================
 W R F - G C   T I M E R S
    Domain           1 (Units: s)
 =================================================
  => Coupler Component                       5.140
   -- Physics & Parameterization             1.141
   -- Diagnostics Out                        0.000
  => GEOS-Chem Column                      270.467
  ===> Total Chemistry                     275.607
  => WRF                                  2808.862
  ===> Total WRF-GC                       3084.469
 max optd  3.8043249E+37
 max taucldi  7.0275761E-05
 max taucldw  3.7013592E-07
 Switching is not necessary as we are already
 in the right domain!
 GIGC_Chunk_Run: Running for in-PET grid #           1
 GIGC_Chunk_Run: Received new grid IM, JM, LM =          15           9
          49
 =================================================
 W R F - G C   T I M E R S
    Domain           1 (Units: s)
 =================================================
  => Coupler Component                       5.177
   -- Physics & Parameterization             1.150
   -- Diagnostics Out                        0.000
  => GEOS-Chem Column                      271.493
  ===> Total Chemistry                     276.670
  => WRF                                  2827.104
  ===> Total WRF-GC                       3103.773
 max optd  3.8043249E+37
 max taucldi  7.8882680E-05
 max taucldw  3.7109339E-07
 Switching is not necessary as we are already
 in the right domain!
 GIGC_Chunk_Run: Running for in-PET grid #           1
 GIGC_Chunk_Run: Received new grid IM, JM, LM =          15           9
          49
 =================================================
 W R F - G C   T I M E R S
    Domain           1 (Units: s)
 =================================================
  => Coupler Component                       5.217
   -- Physics & Parameterization             1.159
   -- Diagnostics Out                        0.000
  => GEOS-Chem Column                      272.522
  ===> Total Chemistry                     277.740
  => WRF                                  2845.286
  ===> Total WRF-GC                       3123.026
 max optd  3.8043249E+37
 max taucldi  8.0091057E-05
 max taucldw  3.7222335E-07
 Switching is not necessary as we are already
 in the right domain!
 GIGC_Chunk_Run: Running for in-PET grid #           1
 GIGC_Chunk_Run: Received new grid IM, JM, LM =          15           9
          49
 =================================================
 W R F - G C   T I M E R S
    Domain           1 (Units: s)
 =================================================
  => Coupler Component                       5.263
   -- Physics & Parameterization             1.168
   -- Diagnostics Out                        0.000
  => GEOS-Chem Column                      273.549
  ===> Total Chemistry                     278.813
  => WRF                                  2863.509
  ===> Total WRF-GC                       3142.322
 HOURLY EMISSIONS UPDATE TIME    39600.0       0.0
mediation_integrate: med_read_wrf_chem_emissions: Read emissions for time 2018-01-01_11:00:00
 max optd  3.8043249E+37
 max taucldi  6.4312037E-05
 max taucldw  3.7346695E-07
 Switching is not necessary as we are already
 in the right domain!
 GIGC_Chunk_Run: Running for in-PET grid #           1
 GIGC_Chunk_Run: Received new grid IM, JM, LM =          15           9
          49
 =================================================
 W R F - G C   T I M E R S
    Domain           1 (Units: s)
 =================================================
  => Coupler Component                       5.302
   -- Physics & Parameterization             1.177
   -- Diagnostics Out                        0.000
  => GEOS-Chem Column                      274.602
  ===> Total Chemistry                     279.903
  => WRF                                  2881.718
  ===> Total WRF-GC                       3161.622
 max optd  3.8043249E+37
 max taucldi  9.2026668E-05
 max taucldw  3.7485415E-07
 Switching is not necessary as we are already
 in the right domain!
 GIGC_Chunk_Run: Running for in-PET grid #           1
 GIGC_Chunk_Run: Received new grid IM, JM, LM =          15           9
          49
 =================================================
 W R F - G C   T I M E R S
    Domain           1 (Units: s)
 =================================================
  => Coupler Component                       5.344
   -- Physics & Parameterization             1.185
   -- Diagnostics Out                        0.000
  => GEOS-Chem Column                      275.640
  ===> Total Chemistry                     280.983
  => WRF                                  2899.853
  ===> Total WRF-GC                       3180.837
 max optd  3.8043249E+37
 max taucldi  1.1298365E-04
 max taucldw  3.7624372E-07
 Switching is not necessary as we are already
 in the right domain!
 GIGC_Chunk_Run: Running for in-PET grid #           1
 GIGC_Chunk_Run: Received new grid IM, JM, LM =          15           9
          49
 =================================================
 W R F - G C   T I M E R S
    Domain           1 (Units: s)
 =================================================
  => Coupler Component                       5.381
   -- Physics & Parameterization             1.194
   -- Diagnostics Out                        0.000
  => GEOS-Chem Column                      276.669
  ===> Total Chemistry                     282.050
  => WRF                                  2918.106
  ===> Total WRF-GC                       3200.156
 max optd  3.8043249E+37
 max taucldi  9.2158349E-05
 max taucldw  3.7758630E-07
 Switching is not necessary as we are already
 in the right domain!
 GIGC_Chunk_Run: Running for in-PET grid #           1
 GIGC_Chunk_Run: Received new grid IM, JM, LM =          15           9
          49
 =================================================
 W R F - G C   T I M E R S
    Domain           1 (Units: s)
 =================================================
  => Coupler Component                       5.419
   -- Physics & Parameterization             1.203
   -- Diagnostics Out                        0.000
  => GEOS-Chem Column                      277.697
  ===> Total Chemistry                     283.116
  => WRF                                  2936.413
  ===> Total WRF-GC                       3219.528
 max optd  3.8043249E+37
 max taucldi  1.2088833E-04
 max taucldw  3.7886630E-07
 Switching is not necessary as we are already
 in the right domain!
 GIGC_Chunk_Run: Running for in-PET grid #           1
 GIGC_Chunk_Run: Received new grid IM, JM, LM =          15           9
          49
 =================================================
 W R F - G C   T I M E R S
    Domain           1 (Units: s)
 =================================================
  => Coupler Component                       5.458
   -- Physics & Parameterization             1.212
   -- Diagnostics Out                        0.000
  => GEOS-Chem Column                      278.731
  ===> Total Chemistry                     284.190
  => WRF                                  2954.861
  ===> Total WRF-GC                       3239.050
 max optd  3.8043249E+37
 max taucldi  1.3393794E-04
 max taucldw  3.7998433E-07
 Switching is not necessary as we are already
 in the right domain!
 GIGC_Chunk_Run: Running for in-PET grid #           1
 GIGC_Chunk_Run: Received new grid IM, JM, LM =          15           9
          49
 =================================================
 W R F - G C   T I M E R S
    Domain           1 (Units: s)
 =================================================
  => Coupler Component                       5.500
   -- Physics & Parameterization             1.221
   -- Diagnostics Out                        0.000
  => GEOS-Chem Column                      279.765
  ===> Total Chemistry                     285.265
  => WRF                                  2973.279
  ===> Total WRF-GC                       3258.544
 max optd  3.8043249E+37
 max taucldi  8.9286221E-03
 max taucldw  3.8095394E-07
 Switching is not necessary as we are already
 in the right domain!
 GIGC_Chunk_Run: Running for in-PET grid #           1
 GIGC_Chunk_Run: Received new grid IM, JM, LM =          15           9
          49
 =================================================
 W R F - G C   T I M E R S
    Domain           1 (Units: s)
 =================================================
  => Coupler Component                       5.539
   -- Physics & Parameterization             1.230
   -- Diagnostics Out                        0.000
  => GEOS-Chem Column                      280.802
  ===> Total Chemistry                     286.341
  => WRF                                  2991.840
  ===> Total WRF-GC                       3278.181
 max optd  3.8043249E+37
 max taucldi  4.4982016E-02
 max taucldw  3.8180804E-07
 Switching is not necessary as we are already
 in the right domain!
 GIGC_Chunk_Run: Running for in-PET grid #           1
 GIGC_Chunk_Run: Received new grid IM, JM, LM =          15           9
          49
 =================================================
 W R F - G C   T I M E R S
    Domain           1 (Units: s)
 =================================================
  => Coupler Component                       5.579
   -- Physics & Parameterization             1.239
   -- Diagnostics Out                        0.000
  => GEOS-Chem Column                      281.844
  ===> Total Chemistry                     287.423
  => WRF                                  3010.419
  ===> Total WRF-GC                       3297.842
 max optd  3.8043249E+37
 max taucldi  7.5263530E-02
 max taucldw  3.8248962E-07
 Switching is not necessary as we are already
 in the right domain!
 GIGC_Chunk_Run: Running for in-PET grid #           1
 GIGC_Chunk_Run: Received new grid IM, JM, LM =          15           9
          49
 =================================================
 W R F - G C   T I M E R S
    Domain           1 (Units: s)
 =================================================
  => Coupler Component                       5.617
   -- Physics & Parameterization             1.247
   -- Diagnostics Out                        0.000
  => GEOS-Chem Column                      282.886
  ===> Total Chemistry                     288.503
  => WRF                                  3029.123
  ===> Total WRF-GC                       3317.626
 max optd  3.8043249E+37
 max taucldi  8.5526086E-02
 max taucldw  3.8299672E-07
 Switching is not necessary as we are already
 in the right domain!
 GIGC_Chunk_Run: Running for in-PET grid #           1
 GIGC_Chunk_Run: Received new grid IM, JM, LM =          15           9
          49
 =================================================
 W R F - G C   T I M E R S
    Domain           1 (Units: s)
 =================================================
  => Coupler Component                       5.658
   -- Physics & Parameterization             1.256
   -- Diagnostics Out                        0.000
  => GEOS-Chem Column                      283.922
  ===> Total Chemistry                     289.580
  => WRF                                  3048.040
  ===> Total WRF-GC                       3337.620
 max optd  3.8043249E+37
 max taucldi  9.5506638E-02
 max taucldw  3.8330924E-07
 Switching is not necessary as we are already
 in the right domain!
 GIGC_Chunk_Run: Running for in-PET grid #           1
 GIGC_Chunk_Run: Received new grid IM, JM, LM =          15           9
          49
 =================================================
 W R F - G C   T I M E R S
    Domain           1 (Units: s)
 =================================================
  => Coupler Component                       5.698
   -- Physics & Parameterization             1.266
   -- Diagnostics Out                        0.000
  => GEOS-Chem Column                      284.957
  ===> Total Chemistry                     290.654
  => WRF                                  3066.874
  ===> Total WRF-GC                       3357.528
 max optd  3.8043249E+37
 max taucldi  0.1004556    
 max taucldw  3.8339857E-07
 Switching is not necessary as we are already
 in the right domain!
 GIGC_Chunk_Run: Running for in-PET grid #           1
 GIGC_Chunk_Run: Received new grid IM, JM, LM =          15           9
          49
 =================================================
 W R F - G C   T I M E R S
    Domain           1 (Units: s)
 =================================================
  => Coupler Component                       5.732
   -- Physics & Parameterization             1.275
   -- Diagnostics Out                        0.000
  => GEOS-Chem Column                      285.984
  ===> Total Chemistry                     291.716
  => WRF                                  3085.643
  ===> Total WRF-GC                       3377.358
d01 2018-01-01_12:00:00 wrf: SUCCESS COMPLETE WRF
