taskid: 552 hostname: ip-172-31-2-57
Quilting with   1 groups of   0 I/O tasks.
 Ntasks in X           64 , ntasks in Y           72
--- WARNING: traj_opt is zero, but num_traj is not zero; setting num_traj to zero.
--- NOTE: sst_update is 0, setting io_form_auxinput4 = 0 and auxinput4_interval = 0 for all domains
--- NOTE: grid_fdda is 0 for domain      1, setting gfdda interval and ending time to 0 for that domain.
--- NOTE: both grid_sfdda and pxlsm_soil_nudge are 0 for domain      1, setting sgfdda interval and ending time to 0 for that domain.
--- NOTE: obs_nudge_opt is 0 for domain      1, setting obs nudging interval and ending time to 0 for that domain.
--- NOTE: bl_pbl_physics /= 4, implies mfshconv must be 0, resetting
Need MYNN PBL for icloud_bl = 1, resetting to 0
*************************************
No physics suite selected.
Physics options will be used directly from the namelist.
*************************************
--- NOTE: RRTMG radiation is in use, setting:  levsiz=59, alevsiz=12, no_src_types=6
--- NOTE: num_soil_layers has been set to      4
WRF V3.9.1.1 MODEL
 *************************************
 Parent domain
 ids,ide,jds,jde            1         950           1         650
 ims,ime,jms,jme          584         612          67          89
 ips,ipe,jps,jpe          591         605          74          82
 *************************************
DYNAMICS OPTION: Eulerian Mass Coordinate
   alloc_space_field: domain            1 ,              203623800  bytes allocated
  med_initialdata_input: calling input_input
Max map factor in domain 1 =  1.40. Scale the dt in the model accordingly.
INPUT LandUse = "USGS"
 LANDUSE TYPE = "USGS" FOUND          33  CATEGORIES           2  SEASONS WATER CATEGORY =           16  SNOW CATEGORY =           24
INITIALIZE THREE Noah LSM RELATED TABLES
*****************************************************************
  __          _______  ______       _____  _____ _    _ _____
  \ \        / /  __ \|  ____|     / ____|/ ____| |  | |  __ \
   \ \  /\  / /| |__) | |__ ______| |  __| |    | |__| | |__) |
    \ \/  \/ / |  _  /|  __|______| | |_ | |    |  __  |  ___/
     \  /\  /  | | \ \| |         | |__| | |____| |  | | |
      \/  \/   |_|  \_\_|          \_____|\_____|_|  |_|_|
*****************************************************************
         WRF-GC MODEL, VERSION 1811.11 - WRF BINDINGS
 For errors, suggestions & feedback email linhaipeng@pku.edu.cn
*****************************************************************
    This is domain            1
 ### GIGC_Stateful_Mod: Root CPU, after READ_INPUT_FILE
  Linoz Data:  O3 climatology :                  z*=10, 12, ..., 58                             2.700E-08 1.083E-05
  Linoz Data:  Temperature climatology :         z*=10, 12, ..., 58                             1.859E+02 2.904E+02
  Linoz Data:  Column O3 above box climalology : z*=10, 12, ..., 58                             7.538E-02 3.770E+02
  Linoz Data:  P-L O3 climatology (mr/s):        z*=10, 12, ..., 58                            -1.590E-10 2.835E-11
  Linoz Data:  d(P-L)/dO3 (1/s) :                z*=10, 12, ..., 58                            -8.386E-04 7.556E-09
  Linoz Data:  d(P-L)/dT (mr/K) :                z*=10, 12, ..., 58                            -5.742E-12 4.615E-14
  Linoz Data:  d(P-L)/d(column O3) (mr/DU) :     z*=10, 12, ..., 58                            -1.921E-12 5.038E-10
 ### GIGC_Stateful_Mod: Root CPU, after LINOZ_READ
 %%%%%%%%% GIGC IN-PET GRID SWITCHING HACKS %%%%%%%%%
     (Not very) Proudly brought to you by hplin      
 Some debug information:
 ID:           1
 IM, JM, LM:          15           9          49  will be set as PAR
 Allocs: CMN T GC F
 RC at entry-point:           0
 %%%%%%%%%%%%%%%%%%%%%%%%%%%%%%%%%%%%%%%%%%%%%%%%%%%%
 No need to switch HcoState for ID           1
 Exit RC:            0
 %%%%%%%%%    FINISHED GIGC_Switch_Dims    %%%%%%%%%
 GIGC_Chunk_Init: Received new grid IM, JM, LM =          15           9
          49
     ### GIGC_INIT_SIMULATION: after Input_Opt% setups
     ### GIGC_INIT_SIMULATION: after GC_Init_All
     ### GIGC_INIT_SIMULATION: after GC_Init_Extra
     ### GIGC_INIT_SIMULATION: after INIT_FJX
 # GIGC_CHUNK_MOD: after SV save, ID =           1
 WRFGC chemics_init: Following information regarding Input_Opt% (for all doms)
 After domain           1
 HPC:  T
 LPRT:  F
 DoConv:  T
 DoDryDep:  T
 DoEmis:  T
 DoChem:  T
 DoTurb:  T
 DoWetDep:  T

 tropopause_init: DONE intialized domain            1

 mediation_integrate: med_read_wrf_chem_emissions: Open file wrfchemi_00z_d01
 HOURLY EMISSIONS UPDATE TIME        0.0       0.0
mediation_integrate: med_read_wrf_chem_emissions: Read emissions for time 2018-01-01_00:00:00
open_aux_u : error opening wrffirechemi_d01_2018-01-01_00:00:00 for reading. 100
open_aux_u : error opening wrfchemi_gocart_bg_d01 for reading. 100
d01 2018-01-01_00:00:00 Input data processed for aux input   8 for domain   1
open_aux_u : error opening wrfchemv_d01 for reading. 100
 Tile Strategy is not specified. Assuming 1D-Y
WRF TILE   1 IS    591 IE    605 JS     74 JE     82
WRF NUMBER OF TILES =   1
 max optd  3.3555231E+32
 max taucldi  0.0000000E+00
 max taucldw  0.0000000E+00
 =================================================
 W R F - G C   T I M E R S
    Domain           1 (Units: s)
 =================================================
  => Coupler Component                       0.029
   -- Physics & Parameterization             0.001
   -- Diagnostics Out                        0.000
  => GEOS-Chem Column                        0.000
  ===> Total Chemistry                       0.029
  => WRF                                     0.000
  ===> Total WRF-GC                          0.029
 max optd  3.3555231E+32
 max taucldi  1.0000006E-14
 max taucldw  1.0000006E-14
 %%%%%%%%% GIGC IN-PET GRID SWITCHING HACKS %%%%%%%%%
     (Not very) Proudly brought to you by hplin      
 Some debug information:
 ID:           1
 IM, JM, LM:          15           9          49  will be set as PAR
 Allocs: CMN T GC T
 RC at entry-point:           0
 %%%%%%%%%%%%%%%%%%%%%%%%%%%%%%%%%%%%%%%%%%%%%%%%%%%%
 No need to switch HcoState for ID           1
 Debug HcoState nSpc, NX, NY, NZ         163          15           9          49
 Exit RC:            0
 %%%%%%%%%    FINISHED GIGC_Switch_Dims    %%%%%%%%%
 GIGC_Chunk_Run: Running for in-PET grid #           1
 GIGC_Chunk_Run: Received new grid IM, JM, LM =          15           9
          49
HEMCO: Opening /fsx/HEMCO/BIOFUEL/v2014-07/biofuel.geos.4x5.nc
HEMCO: Opening /fsx/HEMCO/BROMINE/v2015-02/Bromocarb_Liang2010.nc
HEMCO: Opening /fsx/HEMCO/ACET/v2014-07/ACET_seawater.generic.1x1.nc
HEMCO: Opening /fsx/HEMCO/SOILNOX/v2014-07/DepReservoirDefault.nc
HEMCO: Opening /fsx/HEMCO/SOILNOX/v2014-07/soilNOx.landtype.generic.025x025.1L.nc
HEMCO: Opening /fsx/HEMCO/SOILNOX/v2014-07/soilNOx.climate.generic.05x05.nc
HEMCO: Opening /fsx/HEMCO/DUST_DEAD/v2014-07/dst_tibds.geos.4x5.nc
HEMCO: Opening /fsx/HEMCO/DUST_DEAD/v2014-07/GOCART_src_fn.geos.4x5.nc
HEMCO: Opening /fsx/HEMCO/MEGAN/v2018-05/MEGAN2.1_EF.geos.025x03125.nc
HEMCO: Opening /fsx/HEMCO/MEGAN/v2017-07/CLM4_PFT.geos.025x03125.nc
HEMCO: Opening /fsx/HEMCO/TIMEZONES/v2015-02/timezones_voronoi_1x1.nc
HEMCO: Opening /fsx/HEMCO/STRAT/v2015-01/Bry/GEOSCCM_Bry.200701.day.nc
HEMCO: Opening /fsx/HEMCO/STRAT/v2015-01/Bry/GEOSCCM_Bry.200701.night.nc
HEMCO: Opening /fsx/HEMCO/OMOC/v2018-01/OMOC.DJF.01x01.nc
HEMCO: Opening /fsx/HEMCO/OMOC/v2018-01/OMOC.MAM.01x01.nc
HEMCO: Opening /fsx/HEMCO/OMOC/v2018-01/OMOC.JJA.01x01.nc
HEMCO: Opening /fsx/HEMCO/OMOC/v2018-01/OMOC.SON.01x01.nc
HEMCO: Opening /fsx/HEMCO/AnnualScalar/v2014-07/AnnualScalar.geos.1x1.nc
HEMCO: Opening /fsx/HEMCO/EDGARv42/v2015-02/NO/EDGAR_hourly_NOxScal.nc
HEMCO: Opening /fsx/HEMCO/MASKS/v2018-09/EMEP_mask.geos.1x1.20151222.nc
HEMCO: Opening /fsx/HEMCO/MASKS/v2018-09/Canada_mask.geos.1x1.nc
HEMCO: Opening /fsx/HEMCO/MASKS/v2018-09/SE_Asia_mask.generic.1x1.nc
HEMCO: Opening /fsx/HEMCO/MASKS/v2018-09/MIX_Asia_mask.generic.025x025.nc
HEMCO: Opening /fsx/HEMCO/MASKS/v2018-09/CONUS_Mask.01x01.nc
HEMCO: Opening /fsx/HEMCO/MASKS/v2018-09/AF_LANDMASK.geos.05x0666.global.nc
HEMCO: Opening /fsx/HEMCO/MASKS/v2018-09/China_mask.generic.1x1.nc
HEMCO: Opening /fsx/HEMCO/MASKS/v2018-09/India_mask.generic.1x1.nc
HEMCO: Opening /fsx/HEMCO/AnnualScalar/v2014-07/AnnualScalar.geos.1x1.nc
HEMCO: Opening /fsx/HEMCO/NH3/v2014-07/NH3_geos.4x5.nc
HEMCO: Opening /fsx/HEMCO/NH3/v2018-04/NH3_Arctic_seabirds.nc
HEMCO: Opening /fsx/HEMCO/CEDS/v2018-08/2014/NO-em-anthro_CMIP_CEDS_2014.nc
HEMCO: Opening /fsx/HEMCO/CEDS/v2018-08/2014/CO-em-anthro_CMIP_CEDS_2014.nc
HEMCO: Opening /fsx/HEMCO/CEDS/v2018-08/2014/SO2-em-anthro_CMIP_CEDS_2014.nc
HEMCO: Opening /fsx/HEMCO/CEDS/v2018-08/2014/NH3-em-anthro_CMIP_CEDS_2014.nc
HEMCO: Opening /fsx/HEMCO/CEDS/v2018-08/2014/BC-em-anthro_CMIP_CEDS_2014.nc
HEMCO: Opening /fsx/HEMCO/CEDS/v2018-08/2014/OC-em-anthro_CMIP_CEDS_2014.nc
HEMCO: Opening /fsx/HEMCO/CEDS/v2018-08/2014/EOH-em-anthro_CMIP_CEDS_2014.nc
HEMCO: Opening /fsx/HEMCO/CEDS/v2018-08/2014/C2H6-em-anthro_CMIP_CEDS_2014.nc
HEMCO: Opening /fsx/HEMCO/CEDS/v2018-08/2014/C3H8-em-anthro_CMIP_CEDS_2014.nc
HEMCO: Opening /fsx/HEMCO/CEDS/v2018-08/2014/ALK4_butanes-em-anthro_CMIP_CEDS_2014.nc
HEMCO: Opening /fsx/HEMCO/CEDS/v2018-08/2014/ALK4_pentanes-em-anthro_CMIP_CEDS_2014.nc
HEMCO: Opening /fsx/HEMCO/CEDS/v2018-08/2014/ALK4_hexanes-em-anthro_CMIP_CEDS_2014.nc
HEMCO: Opening /fsx/HEMCO/CEDS/v2018-08/2014/PRPE-em-anthro_CMIP_CEDS_2014.nc
HEMCO: Opening /fsx/HEMCO/CEDS/v2018-08/2014/BENZ-em-anthro_CMIP_CEDS_2014.nc
HEMCO: Opening /fsx/HEMCO/CEDS/v2018-08/2014/TOLU-em-anthro_CMIP_CEDS_2014.nc
HEMCO: Opening /fsx/HEMCO/CEDS/v2018-08/2014/XYLE-em-anthro_CMIP_CEDS_2014.nc
HEMCO: Opening /fsx/HEMCO/CEDS/v2018-08/2014/CH2O-em-anthro_CMIP_CEDS_2014.nc
HEMCO: Opening /fsx/HEMCO/CEDS/v2018-08/2014/ALD2-em-anthro_CMIP_CEDS_2014.nc
HEMCO: Opening /fsx/HEMCO/CEDS/v2018-08/2014/MEK-em-anthro_CMIP_CEDS_2014.nc
HEMCO: Opening /fsx/HEMCO/CEDS/v2018-08/2014/HCOOH-em-anthro_CMIP_CEDS_2014.nc
HEMCO: Opening /fsx/HEMCO/C2H6_2010/v2017-05/C2H6_global_anth_biof.201001.nc
HEMCO: Opening /fsx/HEMCO/NEI2011/v2017-02-MM/01/NEI11_0.1x0.1_201101_monmean.nc
HEMCO: Opening /fsx/HEMCO/NEI2011/v2017-02-MM/01/NEI11_0.1x0.1_201101_monmean_egu.nc
HEMCO: Opening /fsx/HEMCO/NEI2011/v2017-02-MM/01/NEI11_0.1x0.1_201101_monmean_egupk.nc
HEMCO: Opening /fsx/HEMCO/NEI2011/v2017-02-MM/01/NEI11_0.1x0.1_201101_monmean_oilgas.nc
HEMCO: Opening /fsx/HEMCO/NEI2011/v2017-02-MM/01/NEI11_0.1x0.1_201101_monmean_othpt.nc
HEMCO: Opening /fsx/HEMCO/NEI2011/v2017-02-MM/01/NEI11_0.1x0.1_201101_monmean_ptnonipm.nc
HEMCO: Opening /fsx/HEMCO/IODINE/v2017-09/CH3I_monthly_emissions_Ordonez_2012_COARDS.nc
HEMCO: Opening /fsx/HEMCO/IODINE/v2017-09/CH2I2_monthly_emissions_Ordonez_2012_COARDS.nc
HEMCO: Opening /fsx/HEMCO/IODINE/v2017-09/CH2ICl_monthly_emissions_Ordonez_2012_COARDS.nc
HEMCO: Opening /fsx/HEMCO/IODINE/v2017-09/CH2IBr_monthly_emissions_Ordonez_2012_COARDS.nc
HEMCO: Opening /fsx/HEMCO/CEDS/v2018-08/2014/CO-em-anthro_CMIP_CEDS_2014.nc
HEMCO: Opening /fsx/HEMCO/CEDS/v2018-08/2014/SO2-em-anthro_CMIP_CEDS_2014.nc
HEMCO: Opening /fsx/HEMCO/CEDS/v2018-08/2014/NH3-em-anthro_CMIP_CEDS_2014.nc
HEMCO: Opening /fsx/HEMCO/CEDS/v2018-08/2014/BC-em-anthro_CMIP_CEDS_2014.nc
HEMCO: Opening /fsx/HEMCO/CEDS/v2018-08/2014/OC-em-anthro_CMIP_CEDS_2014.nc
HEMCO: Opening /fsx/HEMCO/CEDS/v2018-08/2014/EOH-em-anthro_CMIP_CEDS_2014.nc
HEMCO: Opening /fsx/HEMCO/CEDS/v2018-08/2014/C2H6-em-anthro_CMIP_CEDS_2014.nc
HEMCO: Opening /fsx/HEMCO/CEDS/v2018-08/2014/C3H8-em-anthro_CMIP_CEDS_2014.nc
HEMCO: Opening /fsx/HEMCO/CEDS/v2018-08/2014/ALK4_butanes-em-anthro_CMIP_CEDS_2014.nc
HEMCO: Opening /fsx/HEMCO/CEDS/v2018-08/2014/ALK4_pentanes-em-anthro_CMIP_CEDS_2014.nc
HEMCO: Opening /fsx/HEMCO/CEDS/v2018-08/2014/ALK4_hexanes-em-anthro_CMIP_CEDS_2014.nc
HEMCO: Opening /fsx/HEMCO/CEDS/v2018-08/2014/PRPE-em-anthro_CMIP_CEDS_2014.nc
HEMCO: Opening /fsx/HEMCO/CEDS/v2018-08/2014/BENZ-em-anthro_CMIP_CEDS_2014.nc
HEMCO: Opening /fsx/HEMCO/CEDS/v2018-08/2014/TOLU-em-anthro_CMIP_CEDS_2014.nc
HEMCO: Opening /fsx/HEMCO/CEDS/v2018-08/2014/XYLE-em-anthro_CMIP_CEDS_2014.nc
HEMCO: Opening /fsx/HEMCO/CEDS/v2018-08/2014/CH2O-em-anthro_CMIP_CEDS_2014.nc
HEMCO: Opening /fsx/HEMCO/CEDS/v2018-08/2014/ALD2-em-anthro_CMIP_CEDS_2014.nc
HEMCO: Opening /fsx/HEMCO/CEDS/v2018-08/2014/MEK-em-anthro_CMIP_CEDS_2014.nc
HEMCO: Opening /fsx/HEMCO/CEDS/v2018-08/2014/HCOOH-em-anthro_CMIP_CEDS_2014.nc
HEMCO: Opening /fsx/HEMCO/CEDS/v2018-08/2014/NO-em-anthro_CMIP_CEDS_2014.nc
HEMCO: Opening /fsx/HEMCO/AEIC/v2015-01/AEIC.47L.gen.1x1.nc
HEMCO: Opening /fsx/HEMCO/ALD2/v2017-03/resp.geos.2x25.nc
HEMCO: Opening /fsx/HEMCO/DMS/v2015-07/DMS_lana.geos.1x1.nc
HEMCO: Opening /fsx/HEMCO/ALD2/v2017-03/ALD2_seawater.geos.2x25.nc
HEMCO: Opening /fsx/HEMCO/DUST_DEAD/v2014-07/dst_tvbds.geos.4x5.nc
HEMCO: Opening /fsx/HEMCO/DUST_DEAD/v2018-04/PM25FINE_ECLIPSE_2015.geos.2x25.nc
HEMCO: Opening /fsx/HEMCO/SOA/v2014-07/NVOC.geos.1x1.nc
HEMCO: Opening /fsx/HEMCO/GFED4/v2015-10/2016/GFED4_gen.025x025.201601.nc
HEMCO: Opening /fsx/HEMCO/UVALBEDO/v2015-03/uvalbedo.geos.2x25.nc
HEMCO: Opening /fsx/HEMCO/GMI/v2015-02/gmi.clim.ACET.geos5.2x25.nc
HEMCO: Opening /fsx/HEMCO/GMI/v2015-02/gmi.clim.ACTA.geos5.2x25.nc
HEMCO: Opening /fsx/HEMCO/GMI/v2015-02/gmi.clim.ALD2.geos5.2x25.nc
HEMCO: Opening /fsx/HEMCO/GMI/v2015-02/gmi.clim.ALK4.geos5.2x25.nc
HEMCO: Opening /fsx/HEMCO/GMI/v2015-02/gmi.clim.C2H6.geos5.2x25.nc
HEMCO: Opening /fsx/HEMCO/GMI/v2015-02/gmi.clim.C3H8.geos5.2x25.nc
HEMCO: Opening /fsx/HEMCO/GMI/v2015-02/gmi.clim.CCl4.geos5.2x25.nc
HEMCO: Opening /fsx/HEMCO/GMI/v2015-02/gmi.clim.CF2Cl2.geos5.2x25.nc
HEMCO: Opening /fsx/HEMCO/GMI/v2015-02/gmi.clim.CF2ClBr.geos5.2x25.nc
HEMCO: Opening /fsx/HEMCO/GMI/v2015-02/gmi.clim.CFC113.geos5.2x25.nc
HEMCO: Opening /fsx/HEMCO/GMI/v2015-02/gmi.clim.CFC114.geos5.2x25.nc
HEMCO: Opening /fsx/HEMCO/GMI/v2015-02/gmi.clim.CFC115.geos5.2x25.nc
HEMCO: Opening /fsx/HEMCO/GMI/v2015-02/gmi.clim.CFCl3.geos5.2x25.nc
HEMCO: Opening /fsx/HEMCO/GMI/v2015-02/gmi.clim.CH2O.geos5.2x25.nc
HEMCO: Opening /fsx/HEMCO/GMI/v2015-02/gmi.clim.CH3CCl3.geos5.2x25.nc
HEMCO: Opening /fsx/HEMCO/GMI/v2015-02/gmi.clim.CH3Cl.geos5.2x25.nc
HEMCO: Opening /fsx/HEMCO/GMI/v2015-02/gmi.clim.CH4.geos5.2x25.nc
HEMCO: Opening /fsx/HEMCO/GMI/v2015-02/gmi.clim.CO.geos5.2x25.nc
HEMCO: Opening /fsx/HEMCO/GMI/v2015-02/gmi.clim.Cl.geos5.2x25.nc
HEMCO: Opening /fsx/HEMCO/GMI/v2015-02/gmi.clim.Cl2.geos5.2x25.nc
HEMCO: Opening /fsx/HEMCO/GMI/v2015-02/gmi.clim.Cl2O2.geos5.2x25.nc
HEMCO: Opening /fsx/HEMCO/GMI/v2015-02/gmi.clim.ClO.geos5.2x25.nc
HEMCO: Opening /fsx/HEMCO/GMI/v2015-02/gmi.clim.EOH.geos5.2x25.nc
HEMCO: Opening /fsx/HEMCO/GMI/v2015-02/gmi.clim.GLYC.geos5.2x25.nc
HEMCO: Opening /fsx/HEMCO/GMI/v2015-02/gmi.clim.GLYX.geos5.2x25.nc
HEMCO: Opening /fsx/HEMCO/GMI/v2015-02/gmi.clim.H2402.geos5.2x25.nc
HEMCO: Opening /fsx/HEMCO/GMI/v2015-02/gmi.clim.H2O.geos5.2x25.nc
HEMCO: Opening /fsx/HEMCO/GMI/v2015-02/gmi.clim.H2O2.geos5.2x25.nc
HEMCO: Opening /fsx/HEMCO/GMI/v2015-02/gmi.clim.HAC.geos5.2x25.nc
HEMCO: Opening /fsx/HEMCO/GMI/v2015-02/gmi.clim.HCFC141b.geos5.2x25.nc
HEMCO: Opening /fsx/HEMCO/GMI/v2015-02/gmi.clim.HCFC142b.geos5.2x25.nc
HEMCO: Opening /fsx/HEMCO/GMI/v2015-02/gmi.clim.HCFC22.geos5.2x25.nc
HEMCO: Opening /fsx/HEMCO/GMI/v2015-02/gmi.clim.HCOOH.geos5.2x25.20170108.nc
HEMCO: Opening /fsx/HEMCO/GMI/v2015-02/gmi.clim.HCl.geos5.2x25.nc
HEMCO: Opening /fsx/HEMCO/GMI/v2015-02/gmi.clim.HNO2.geos5.2x25.nc
HEMCO: Opening /fsx/HEMCO/GMI/v2015-02/gmi.clim.HNO3.geos5.2x25.nc
HEMCO: Opening /fsx/HEMCO/GMI/v2015-02/gmi.clim.HNO4.geos5.2x25.nc
HEMCO: Opening /fsx/HEMCO/GMI/v2015-02/gmi.clim.HOCl.geos5.2x25.nc
HEMCO: Opening /fsx/HEMCO/GMI/v2015-02/gmi.clim.ISN1.geos5.2x25.nc
HEMCO: Opening /fsx/HEMCO/GMI/v2015-02/gmi.clim.ISOP.geos5.2x25.nc
HEMCO: Opening /fsx/HEMCO/GMI/v2015-02/gmi.clim.MACR.geos5.2x25.nc
HEMCO: Opening /fsx/HEMCO/GMI/v2015-02/gmi.clim.MAP.geos5.2x25.nc
HEMCO: Opening /fsx/HEMCO/GMI/v2015-02/gmi.clim.MEK.geos5.2x25.nc
HEMCO: Opening /fsx/HEMCO/GMI/v2015-02/gmi.clim.MGLY.geos5.2x25.nc
HEMCO: Opening /fsx/HEMCO/GMI/v2015-02/gmi.clim.MP.geos5.2x25.nc
HEMCO: Opening /fsx/HEMCO/GMI/v2015-02/gmi.clim.MVK.geos5.2x25.nc
HEMCO: Opening /fsx/HEMCO/GMI/v2015-02/gmi.clim.N2O.geos5.2x25.nc
HEMCO: Opening /fsx/HEMCO/GMI/v2015-02/gmi.clim.N2O5.geos5.2x25.nc
HEMCO: Opening /fsx/HEMCO/GMI/v2015-02/gmi.clim.NO.geos5.2x25.nc
HEMCO: Opening /fsx/HEMCO/GMI/v2015-02/gmi.clim.NO2.geos5.2x25.nc
HEMCO: Opening /fsx/HEMCO/GMI/v2015-02/gmi.clim.NO3.geos5.2x25.nc
HEMCO: Opening /fsx/HEMCO/GMI/v2015-02/gmi.clim.O3.geos5.2x25.nc
HEMCO: Opening /fsx/HEMCO/GMI/v2015-02/gmi.clim.OClO.geos5.2x25.nc
HEMCO: Opening /fsx/HEMCO/GMI/v2015-02/gmi.clim.PAN.geos5.2x25.nc
HEMCO: Opening /fsx/HEMCO/GMI/v2015-02/gmi.clim.NPMN.geos5.2x25.nc
HEMCO: Opening /fsx/HEMCO/GMI/v2015-02/gmi.clim.IPMN.geos5.2x25.nc
HEMCO: Opening /fsx/HEMCO/GMI/v2015-02/gmi.clim.PPN.geos5.2x25.nc
HEMCO: Opening /fsx/HEMCO/GMI/v2015-02/gmi.clim.PRPE.geos5.2x25.nc
HEMCO: Opening /fsx/HEMCO/GMI/v2015-02/gmi.clim.R4N2.geos5.2x25.nc
HEMCO: Opening /fsx/HEMCO/GMI/v2015-02/gmi.clim.RCHO.geos5.2x25.nc
HEMCO: Opening /fsx/HEMCO/GMI/v2015-02/gmi.clim.RIPA.geos5.2x25.nc
HEMCO: Opening /fsx/HEMCO/GMI/v2015-02/gmi.clim.RIPB.geos5.2x25.nc
HEMCO: Opening /fsx/HEMCO/GMI/v2015-02/gmi.clim.RIPD.geos5.2x25.nc
HEMCO: Opening /fsx/HEMCO/GMI/v2015-02/gmi.clim.OH.geos5.2x25.nc
HEMCO: Opening /fsx/HEMCO/NOAA_GMD/v2018-01/monthly.gridded.surface.methane.1979-2020.1x1.nc
HEMCO: Opening /fsx/HEMCO/GEIA/v2014-07/GEIA_monthscal.generic.1x1.nc
HEMCO: Opening /fsx/HEMCO/EMEP/v2015-03/EMEP.Seasonal.geos.1x1.nc
HEMCO: Opening /fsx/HEMCO/BROMINE/v2015-02/BromoCarb_Season.nc
HEMCO: Opening /fsx/HEMCO/EDGARv43/v2016-11/EDGAR_v43.Seasonal.1x1.nc
HEMCO: Opening /fsx/HEMCO/NEI2005/v2014-09/scaling/NEI99.dow.geos.1x1.nc
HEMCO: Opening /fsx/HEMCO/VOLCANO/v2015-02/2009/volc_so2_gen.1x1.47L.200901.nc
HEMCO: Opening /fsx/HEMCO/SOILNOX/v2014-07/soilNOx.fert_res.generic.05x05.nc
 vdinti: pbl height will be limited to bottom           25  model levels. top is
     431.250100000000       hpa
 =================================================
 W R F - G C   T I M E R S
    Domain           1 (Units: s)
 =================================================
  => Coupler Component                       0.056
   -- Physics & Parameterization             0.010
   -- Diagnostics Out                        0.000
  => GEOS-Chem Column                       78.131
  ===> Total Chemistry                      78.187
  => WRF                                    17.309
  ===> Total WRF-GC                         95.496
 max optd  3.9754773E+32
 max taucldi  1.0733578E-06
 max taucldw  1.7419799E-05
 Switching is not necessary as we are already
 in the right domain!
 GIGC_Chunk_Run: Running for in-PET grid #           1
 GIGC_Chunk_Run: Received new grid IM, JM, LM =          15           9
          49
 =================================================
 W R F - G C   T I M E R S
    Domain           1 (Units: s)
 =================================================
  => Coupler Component                       0.095
   -- Physics & Parameterization             0.020
   -- Diagnostics Out                        0.000
  => GEOS-Chem Column                       79.319
  ===> Total Chemistry                      79.415
  => WRF                                   112.789
  ===> Total WRF-GC                        192.204
 max optd  3.9754773E+32
 max taucldi  6.7364313E-02
 max taucldw  1.5621827E-05
 Switching is not necessary as we are already
 in the right domain!
 GIGC_Chunk_Run: Running for in-PET grid #           1
 GIGC_Chunk_Run: Received new grid IM, JM, LM =          15           9
          49
 =================================================
 W R F - G C   T I M E R S
    Domain           1 (Units: s)
 =================================================
  => Coupler Component                       0.139
   -- Physics & Parameterization             0.029
   -- Diagnostics Out                        0.000
  => GEOS-Chem Column                       80.427
  ===> Total Chemistry                      80.566
  => WRF                                   133.447
  ===> Total WRF-GC                        214.013
 max optd  3.9754773E+32
 max taucldi  6.8040572E-02
 max taucldw  2.1084068E-05
 Switching is not necessary as we are already
 in the right domain!
 GIGC_Chunk_Run: Running for in-PET grid #           1
 GIGC_Chunk_Run: Received new grid IM, JM, LM =          15           9
          49
 =================================================
 W R F - G C   T I M E R S
    Domain           1 (Units: s)
 =================================================
  => Coupler Component                       0.177
   -- Physics & Parameterization             0.039
   -- Diagnostics Out                        0.000
  => GEOS-Chem Column                       81.510
  ===> Total Chemistry                      81.687
  => WRF                                   152.424
  ===> Total WRF-GC                        234.111
 max optd  3.9754773E+32
 max taucldi  7.5833105E-02
 max taucldw  2.6723234E-05
 Switching is not necessary as we are already
 in the right domain!
 GIGC_Chunk_Run: Running for in-PET grid #           1
 GIGC_Chunk_Run: Received new grid IM, JM, LM =          15           9
          49
 =================================================
 W R F - G C   T I M E R S
    Domain           1 (Units: s)
 =================================================
  => Coupler Component                       0.216
   -- Physics & Parameterization             0.049
   -- Diagnostics Out                        0.000
  => GEOS-Chem Column                       82.588
  ===> Total Chemistry                      82.805
  => WRF                                   170.940
  ===> Total WRF-GC                        253.745
 max optd  3.9754773E+32
 max taucldi  7.6242387E-02
 max taucldw  3.1934844E-05
 Switching is not necessary as we are already
 in the right domain!
 GIGC_Chunk_Run: Running for in-PET grid #           1
 GIGC_Chunk_Run: Received new grid IM, JM, LM =          15           9
          49
 =================================================
 W R F - G C   T I M E R S
    Domain           1 (Units: s)
 =================================================
  => Coupler Component                       0.254
   -- Physics & Parameterization             0.058
   -- Diagnostics Out                        0.000
  => GEOS-Chem Column                       83.668
  ===> Total Chemistry                      83.922
  => WRF                                   189.365
  ===> Total WRF-GC                        273.287
 max optd  3.9754773E+32
 max taucldi  0.1084889    
 max taucldw  3.6441485E-05
 Switching is not necessary as we are already
 in the right domain!
 GIGC_Chunk_Run: Running for in-PET grid #           1
 GIGC_Chunk_Run: Received new grid IM, JM, LM =          15           9
          49
 =================================================
 W R F - G C   T I M E R S
    Domain           1 (Units: s)
 =================================================
  => Coupler Component                       0.288
   -- Physics & Parameterization             0.067
   -- Diagnostics Out                        0.000
  => GEOS-Chem Column                       84.752
  ===> Total Chemistry                      85.039
  => WRF                                   207.793
  ===> Total WRF-GC                        292.832
 max optd  3.9754773E+32
 max taucldi  0.1252220    
 max taucldw  4.1513875E-05
 Switching is not necessary as we are already
 in the right domain!
 GIGC_Chunk_Run: Running for in-PET grid #           1
 GIGC_Chunk_Run: Received new grid IM, JM, LM =          15           9
          49
 =================================================
 W R F - G C   T I M E R S
    Domain           1 (Units: s)
 =================================================
  => Coupler Component                       0.325
   -- Physics & Parameterization             0.076
   -- Diagnostics Out                        0.000
  => GEOS-Chem Column                       85.818
  ===> Total Chemistry                      86.143
  => WRF                                   226.115
  ===> Total WRF-GC                        312.258
 max optd  3.9754773E+32
 max taucldi  0.1422950    
 max taucldw  4.5079421E-05
 Switching is not necessary as we are already
 in the right domain!
 GIGC_Chunk_Run: Running for in-PET grid #           1
 GIGC_Chunk_Run: Received new grid IM, JM, LM =          15           9
          49
 =================================================
 W R F - G C   T I M E R S
    Domain           1 (Units: s)
 =================================================
  => Coupler Component                       0.357
   -- Physics & Parameterization             0.086
   -- Diagnostics Out                        0.000
  => GEOS-Chem Column                       86.889
  ===> Total Chemistry                      87.246
  => WRF                                   244.511
  ===> Total WRF-GC                        331.757
 max optd  3.9754773E+32
 max taucldi  0.1663423    
 max taucldw  4.7158850E-05
 Switching is not necessary as we are already
 in the right domain!
 GIGC_Chunk_Run: Running for in-PET grid #           1
 GIGC_Chunk_Run: Received new grid IM, JM, LM =          15           9
          49
 =================================================
 W R F - G C   T I M E R S
    Domain           1 (Units: s)
 =================================================
  => Coupler Component                       0.391
   -- Physics & Parameterization             0.095
   -- Diagnostics Out                        0.000
  => GEOS-Chem Column                       87.970
  ===> Total Chemistry                      88.361
  => WRF                                   262.921
  ===> Total WRF-GC                        351.282
 max optd  3.9754773E+32
 max taucldi  0.1701652    
 max taucldw  4.8474129E-05
 Switching is not necessary as we are already
 in the right domain!
 GIGC_Chunk_Run: Running for in-PET grid #           1
 GIGC_Chunk_Run: Received new grid IM, JM, LM =          15           9
          49
 =================================================
 W R F - G C   T I M E R S
    Domain           1 (Units: s)
 =================================================
  => Coupler Component                       0.425
   -- Physics & Parameterization             0.105
   -- Diagnostics Out                        0.000
  => GEOS-Chem Column                       89.041
  ===> Total Chemistry                      89.465
  => WRF                                   281.256
  ===> Total WRF-GC                        370.721
 max optd  3.9754773E+32
 max taucldi  0.1903501    
 max taucldw  4.9426209E-05
 Switching is not necessary as we are already
 in the right domain!
 GIGC_Chunk_Run: Running for in-PET grid #           1
 GIGC_Chunk_Run: Received new grid IM, JM, LM =          15           9
          49
 =================================================
 W R F - G C   T I M E R S
    Domain           1 (Units: s)
 =================================================
  => Coupler Component                       0.458
   -- Physics & Parameterization             0.114
   -- Diagnostics Out                        0.000
  => GEOS-Chem Column                       90.119
  ===> Total Chemistry                      90.578
  => WRF                                   299.471
  ===> Total WRF-GC                        390.049
 HOURLY EMISSIONS UPDATE TIME     3600.0       0.0
mediation_integrate: med_read_wrf_chem_emissions: Read emissions for time 2018-01-01_01:00:00
 max optd  3.9754773E+32
 max taucldi  0.1976386    
 max taucldw  5.0228195E-05
 Switching is not necessary as we are already
 in the right domain!
 GIGC_Chunk_Run: Running for in-PET grid #           1
 GIGC_Chunk_Run: Received new grid IM, JM, LM =          15           9
          49
 =================================================
 W R F - G C   T I M E R S
    Domain           1 (Units: s)
 =================================================
  => Coupler Component                       0.492
   -- Physics & Parameterization             0.124
   -- Diagnostics Out                        0.000
  => GEOS-Chem Column                       91.209
  ===> Total Chemistry                      91.701
  => WRF                                   317.785
  ===> Total WRF-GC                        409.486
 max optd  3.9754773E+32
 max taucldi  0.1840527    
 max taucldw  5.1609746E-05
 Switching is not necessary as we are already
 in the right domain!
 GIGC_Chunk_Run: Running for in-PET grid #           1
 GIGC_Chunk_Run: Received new grid IM, JM, LM =          15           9
          49
 =================================================
 W R F - G C   T I M E R S
    Domain           1 (Units: s)
 =================================================
  => Coupler Component                       0.527
   -- Physics & Parameterization             0.133
   -- Diagnostics Out                        0.000
  => GEOS-Chem Column                       92.285
  ===> Total Chemistry                      92.812
  => WRF                                   336.061
  ===> Total WRF-GC                        428.873
 max optd  3.9754773E+32
 max taucldi  0.1808698    
 max taucldw  6.0842336E-05
 Switching is not necessary as we are already
 in the right domain!
 GIGC_Chunk_Run: Running for in-PET grid #           1
 GIGC_Chunk_Run: Received new grid IM, JM, LM =          15           9
          49
 =================================================
 W R F - G C   T I M E R S
    Domain           1 (Units: s)
 =================================================
  => Coupler Component                       0.561
   -- Physics & Parameterization             0.142
   -- Diagnostics Out                        0.000
  => GEOS-Chem Column                       93.360
  ===> Total Chemistry                      93.921
  => WRF                                   354.212
  ===> Total WRF-GC                        448.133
 max optd  3.9754773E+32
 max taucldi  0.1701527    
 max taucldw  6.9550122E-05
 Switching is not necessary as we are already
 in the right domain!
 GIGC_Chunk_Run: Running for in-PET grid #           1
 GIGC_Chunk_Run: Received new grid IM, JM, LM =          15           9
          49
 =================================================
 W R F - G C   T I M E R S
    Domain           1 (Units: s)
 =================================================
  => Coupler Component                       0.595
   -- Physics & Parameterization             0.151
   -- Diagnostics Out                        0.000
  => GEOS-Chem Column                       94.438
  ===> Total Chemistry                      95.033
  => WRF                                   372.485
  ===> Total WRF-GC                        467.518
 max optd  3.9754773E+32
 max taucldi  0.1445893    
 max taucldw  7.7161538E-05
 Switching is not necessary as we are already
 in the right domain!
 GIGC_Chunk_Run: Running for in-PET grid #           1
 GIGC_Chunk_Run: Received new grid IM, JM, LM =          15           9
          49
 =================================================
 W R F - G C   T I M E R S
    Domain           1 (Units: s)
 =================================================
  => Coupler Component                       0.629
   -- Physics & Parameterization             0.161
   -- Diagnostics Out                        0.000
  => GEOS-Chem Column                       95.514
  ===> Total Chemistry                      96.142
  => WRF                                   390.692
  ===> Total WRF-GC                        486.835
 max optd  3.9754773E+32
 max taucldi  7.2152831E-02
 max taucldw  8.3234452E-05
 Switching is not necessary as we are already
 in the right domain!
 GIGC_Chunk_Run: Running for in-PET grid #           1
 GIGC_Chunk_Run: Received new grid IM, JM, LM =          15           9
          49
 =================================================
 W R F - G C   T I M E R S
    Domain           1 (Units: s)
 =================================================
  => Coupler Component                       0.662
   -- Physics & Parameterization             0.170
   -- Diagnostics Out                        0.000
  => GEOS-Chem Column                       96.584
  ===> Total Chemistry                      97.245
  => WRF                                   408.855
  ===> Total WRF-GC                        506.100
 max optd  3.9754773E+32
 max taucldi  6.3534558E-02
 max taucldw  8.7803644E-05
 Switching is not necessary as we are already
 in the right domain!
 GIGC_Chunk_Run: Running for in-PET grid #           1
 GIGC_Chunk_Run: Received new grid IM, JM, LM =          15           9
          49
 =================================================
 W R F - G C   T I M E R S
    Domain           1 (Units: s)
 =================================================
  => Coupler Component                       0.695
   -- Physics & Parameterization             0.180
   -- Diagnostics Out                        0.000
  => GEOS-Chem Column                       97.646
  ===> Total Chemistry                      98.341
  => WRF                                   427.097
  ===> Total WRF-GC                        525.438
 max optd  3.9754773E+32
 max taucldi  8.0277033E-02
 max taucldw  9.0983376E-05
 Switching is not necessary as we are already
 in the right domain!
 GIGC_Chunk_Run: Running for in-PET grid #           1
 GIGC_Chunk_Run: Received new grid IM, JM, LM =          15           9
          49
 =================================================
 W R F - G C   T I M E R S
    Domain           1 (Units: s)
 =================================================
  => Coupler Component                       0.731
   -- Physics & Parameterization             0.189
   -- Diagnostics Out                        0.000
  => GEOS-Chem Column                       98.715
  ===> Total Chemistry                      99.446
  => WRF                                   445.458
  ===> Total WRF-GC                        544.904
 max optd  3.9754773E+32
 max taucldi  8.5283279E-02
 max taucldw  9.2897608E-05
 Switching is not necessary as we are already
 in the right domain!
 GIGC_Chunk_Run: Running for in-PET grid #           1
 GIGC_Chunk_Run: Received new grid IM, JM, LM =          15           9
          49
 =================================================
 W R F - G C   T I M E R S
    Domain           1 (Units: s)
 =================================================
  => Coupler Component                       0.766
   -- Physics & Parameterization             0.199
   -- Diagnostics Out                        0.000
  => GEOS-Chem Column                       99.771
  ===> Total Chemistry                     100.537
  => WRF                                   463.545
  ===> Total WRF-GC                        564.082
 max optd  3.9754773E+32
 max taucldi  8.8042721E-02
 max taucldw  9.4566836E-05
 Switching is not necessary as we are already
 in the right domain!
 GIGC_Chunk_Run: Running for in-PET grid #           1
 GIGC_Chunk_Run: Received new grid IM, JM, LM =          15           9
          49
 =================================================
 W R F - G C   T I M E R S
    Domain           1 (Units: s)
 =================================================
  => Coupler Component                       0.802
   -- Physics & Parameterization             0.208
   -- Diagnostics Out                        0.000
  => GEOS-Chem Column                      100.834
  ===> Total Chemistry                     101.636
  => WRF                                   481.710
  ===> Total WRF-GC                        583.346
 max optd  3.9754773E+32
 max taucldi  9.3018770E-02
 max taucldw  9.5817129E-05
 Switching is not necessary as we are already
 in the right domain!
 GIGC_Chunk_Run: Running for in-PET grid #           1
 GIGC_Chunk_Run: Received new grid IM, JM, LM =          15           9
          49
 =================================================
 W R F - G C   T I M E R S
    Domain           1 (Units: s)
 =================================================
  => Coupler Component                       0.839
   -- Physics & Parameterization             0.217
   -- Diagnostics Out                        0.000
  => GEOS-Chem Column                      101.885
  ===> Total Chemistry                     102.724
  => WRF                                   500.004
  ===> Total WRF-GC                        602.728
 max optd  3.9754773E+32
 max taucldi  9.6167885E-02
 max taucldw  1.1031322E-04
 Switching is not necessary as we are already
 in the right domain!
 GIGC_Chunk_Run: Running for in-PET grid #           1
 GIGC_Chunk_Run: Received new grid IM, JM, LM =          15           9
          49
 =================================================
 W R F - G C   T I M E R S
    Domain           1 (Units: s)
 =================================================
  => Coupler Component                       0.877
   -- Physics & Parameterization             0.227
   -- Diagnostics Out                        0.000
  => GEOS-Chem Column                      102.929
  ===> Total Chemistry                     103.806
  => WRF                                   518.180
  ===> Total WRF-GC                        621.986
 HOURLY EMISSIONS UPDATE TIME     7200.0       0.0
mediation_integrate: med_read_wrf_chem_emissions: Read emissions for time 2018-01-01_02:00:00
 max optd  3.9754773E+32
 max taucldi  9.9927112E-02
 max taucldw  1.2668034E-04
 Switching is not necessary as we are already
 in the right domain!
 GIGC_Chunk_Run: Running for in-PET grid #           1
 GIGC_Chunk_Run: Received new grid IM, JM, LM =          15           9
          49
 =================================================
 W R F - G C   T I M E R S
    Domain           1 (Units: s)
 =================================================
  => Coupler Component                       0.915
   -- Physics & Parameterization             0.237
   -- Diagnostics Out                        0.000
  => GEOS-Chem Column                      103.962
  ===> Total Chemistry                     104.877
  => WRF                                   536.375
  ===> Total WRF-GC                        641.252
 max optd  3.9754773E+32
 max taucldi  0.1035570    
 max taucldw  1.3681910E-04
 Switching is not necessary as we are already
 in the right domain!
 GIGC_Chunk_Run: Running for in-PET grid #           1
 GIGC_Chunk_Run: Received new grid IM, JM, LM =          15           9
          49
 =================================================
 W R F - G C   T I M E R S
    Domain           1 (Units: s)
 =================================================
  => Coupler Component                       0.949
   -- Physics & Parameterization             0.246
   -- Diagnostics Out                        0.000
  => GEOS-Chem Column                      104.988
  ===> Total Chemistry                     105.937
  => WRF                                   554.621
  ===> Total WRF-GC                        660.558
 max optd  3.9754773E+32
 max taucldi  0.1122037    
 max taucldw  1.4077601E-04
 Switching is not necessary as we are already
 in the right domain!
 GIGC_Chunk_Run: Running for in-PET grid #           1
 GIGC_Chunk_Run: Received new grid IM, JM, LM =          15           9
          49
 =================================================
 W R F - G C   T I M E R S
    Domain           1 (Units: s)
 =================================================
  => Coupler Component                       0.986
   -- Physics & Parameterization             0.255
   -- Diagnostics Out                        0.000
  => GEOS-Chem Column                      106.045
  ===> Total Chemistry                     107.030
  => WRF                                   572.790
  ===> Total WRF-GC                        679.820
 max optd  3.9754773E+32
 max taucldi  0.1183331    
 max taucldw  1.4417156E-04
 Switching is not necessary as we are already
 in the right domain!
 GIGC_Chunk_Run: Running for in-PET grid #           1
 GIGC_Chunk_Run: Received new grid IM, JM, LM =          15           9
          49
 =================================================
 W R F - G C   T I M E R S
    Domain           1 (Units: s)
 =================================================
  => Coupler Component                       1.021
   -- Physics & Parameterization             0.265
   -- Diagnostics Out                        0.000
  => GEOS-Chem Column                      107.089
  ===> Total Chemistry                     108.110
  => WRF                                   590.887
  ===> Total WRF-GC                        698.998
 max optd  3.9754773E+32
 max taucldi  0.1230017    
 max taucldw  1.4592688E-04
 Switching is not necessary as we are already
 in the right domain!
 GIGC_Chunk_Run: Running for in-PET grid #           1
 GIGC_Chunk_Run: Received new grid IM, JM, LM =          15           9
          49
 =================================================
 W R F - G C   T I M E R S
    Domain           1 (Units: s)
 =================================================
  => Coupler Component                       1.057
   -- Physics & Parameterization             0.274
   -- Diagnostics Out                        0.000
  => GEOS-Chem Column                      108.139
  ===> Total Chemistry                     109.197
  => WRF                                   609.048
  ===> Total WRF-GC                        718.245
 max optd  3.9754773E+32
 max taucldi  0.1273113    
 max taucldw  1.4413056E-04
 Switching is not necessary as we are already
 in the right domain!
 GIGC_Chunk_Run: Running for in-PET grid #           1
 GIGC_Chunk_Run: Received new grid IM, JM, LM =          15           9
          49
 =================================================
 W R F - G C   T I M E R S
    Domain           1 (Units: s)
 =================================================
  => Coupler Component                       1.095
   -- Physics & Parameterization             0.284
   -- Diagnostics Out                        0.000
  => GEOS-Chem Column                      109.190
  ===> Total Chemistry                     110.285
  => WRF                                   627.177
  ===> Total WRF-GC                        737.462
 max optd  3.9754773E+32
 max taucldi  0.1310336    
 max taucldw  1.4085880E-04
 Switching is not necessary as we are already
 in the right domain!
 GIGC_Chunk_Run: Running for in-PET grid #           1
 GIGC_Chunk_Run: Received new grid IM, JM, LM =          15           9
          49
 =================================================
 W R F - G C   T I M E R S
    Domain           1 (Units: s)
 =================================================
  => Coupler Component                       1.131
   -- Physics & Parameterization             0.294
   -- Diagnostics Out                        0.000
  => GEOS-Chem Column                      110.243
  ===> Total Chemistry                     111.374
  => WRF                                   645.313
  ===> Total WRF-GC                        756.687
 max optd  3.9754773E+32
 max taucldi  0.1337270    
 max taucldw  1.3760503E-04
 Switching is not necessary as we are already
 in the right domain!
 GIGC_Chunk_Run: Running for in-PET grid #           1
 GIGC_Chunk_Run: Received new grid IM, JM, LM =          15           9
          49
 =================================================
 W R F - G C   T I M E R S
    Domain           1 (Units: s)
 =================================================
  => Coupler Component                       1.169
   -- Physics & Parameterization             0.303
   -- Diagnostics Out                        0.000
  => GEOS-Chem Column                      111.287
  ===> Total Chemistry                     112.456
  => WRF                                   663.419
  ===> Total WRF-GC                        775.875
 max optd  3.9754773E+32
 max taucldi  0.1350887    
 max taucldw  1.3464827E-04
 Switching is not necessary as we are already
 in the right domain!
 GIGC_Chunk_Run: Running for in-PET grid #           1
 GIGC_Chunk_Run: Received new grid IM, JM, LM =          15           9
          49
 =================================================
 W R F - G C   T I M E R S
    Domain           1 (Units: s)
 =================================================
  => Coupler Component                       1.205
   -- Physics & Parameterization             0.312
   -- Diagnostics Out                        0.000
  => GEOS-Chem Column                      112.341
  ===> Total Chemistry                     113.547
  => WRF                                   681.533
  ===> Total WRF-GC                        795.080
 max optd  3.9754773E+32
 max taucldi  0.1362867    
 max taucldw  1.3834689E-04
 Switching is not necessary as we are already
 in the right domain!
 GIGC_Chunk_Run: Running for in-PET grid #           1
 GIGC_Chunk_Run: Received new grid IM, JM, LM =          15           9
          49
 =================================================
 W R F - G C   T I M E R S
    Domain           1 (Units: s)
 =================================================
  => Coupler Component                       1.241
   -- Physics & Parameterization             0.322
   -- Diagnostics Out                        0.000
  => GEOS-Chem Column                      113.394
  ===> Total Chemistry                     114.635
  => WRF                                   699.670
  ===> Total WRF-GC                        814.305
 max optd  3.9754773E+32
 max taucldi  0.1366072    
 max taucldw  1.4064014E-04
 Switching is not necessary as we are already
 in the right domain!
 GIGC_Chunk_Run: Running for in-PET grid #           1
 GIGC_Chunk_Run: Received new grid IM, JM, LM =          15           9
          49
 =================================================
 W R F - G C   T I M E R S
    Domain           1 (Units: s)
 =================================================
  => Coupler Component                       1.279
   -- Physics & Parameterization             0.331
   -- Diagnostics Out                        0.000
  => GEOS-Chem Column                      114.450
  ===> Total Chemistry                     115.729
  => WRF                                   717.742
  ===> Total WRF-GC                        833.471
 max optd  3.9754773E+32
 max taucldi  0.1362282    
 max taucldw  1.4076386E-04
 Switching is not necessary as we are already
 in the right domain!
 GIGC_Chunk_Run: Running for in-PET grid #           1
 GIGC_Chunk_Run: Received new grid IM, JM, LM =          15           9
          49
 =================================================
 W R F - G C   T I M E R S
    Domain           1 (Units: s)
 =================================================
  => Coupler Component                       1.315
   -- Physics & Parameterization             0.341
   -- Diagnostics Out                        0.000
  => GEOS-Chem Column                      115.514
  ===> Total Chemistry                     116.829
  => WRF                                   735.815
  ===> Total WRF-GC                        852.644
 HOURLY EMISSIONS UPDATE TIME    10800.0       0.0
mediation_integrate: med_read_wrf_chem_emissions: Read emissions for time 2018-01-01_03:00:00
 max optd  3.9754773E+32
 max taucldi  0.1387637    
 max taucldw  1.3892267E-04
 Switching is not necessary as we are already
 in the right domain!
 GIGC_Chunk_Run: Running for in-PET grid #           1
 GIGC_Chunk_Run: Received new grid IM, JM, LM =          15           9
          49
 =================================================
 W R F - G C   T I M E R S
    Domain           1 (Units: s)
 =================================================
  => Coupler Component                       1.349
   -- Physics & Parameterization             0.350
   -- Diagnostics Out                        0.000
  => GEOS-Chem Column                      116.580
  ===> Total Chemistry                     117.930
  => WRF                                   753.934
  ===> Total WRF-GC                        871.863
 max optd  3.9754773E+32
 max taucldi  0.1414170    
 max taucldw  1.3565605E-04
 Switching is not necessary as we are already
 in the right domain!
 GIGC_Chunk_Run: Running for in-PET grid #           1
 GIGC_Chunk_Run: Received new grid IM, JM, LM =          15           9
          49
 =================================================
 W R F - G C   T I M E R S
    Domain           1 (Units: s)
 =================================================
  => Coupler Component                       1.384
   -- Physics & Parameterization             0.360
   -- Diagnostics Out                        0.000
  => GEOS-Chem Column                      117.646
  ===> Total Chemistry                     119.031
  => WRF                                   772.006
  ===> Total WRF-GC                        891.037
 max optd  3.9754773E+32
 max taucldi  0.1428020    
 max taucldw  1.3165287E-04
 Switching is not necessary as we are already
 in the right domain!
 GIGC_Chunk_Run: Running for in-PET grid #           1
 GIGC_Chunk_Run: Received new grid IM, JM, LM =          15           9
          49
 =================================================
 W R F - G C   T I M E R S
    Domain           1 (Units: s)
 =================================================
  => Coupler Component                       1.419
   -- Physics & Parameterization             0.369
   -- Diagnostics Out                        0.000
  => GEOS-Chem Column                      118.712
  ===> Total Chemistry                     120.131
  => WRF                                   790.111
  ===> Total WRF-GC                        910.242
 max optd  3.9754773E+32
 max taucldi  0.1455317    
 max taucldw  1.2738790E-04
 Switching is not necessary as we are already
 in the right domain!
 GIGC_Chunk_Run: Running for in-PET grid #           1
 GIGC_Chunk_Run: Received new grid IM, JM, LM =          15           9
          49
 =================================================
 W R F - G C   T I M E R S
    Domain           1 (Units: s)
 =================================================
  => Coupler Component                       1.458
   -- Physics & Parameterization             0.379
   -- Diagnostics Out                        0.000
  => GEOS-Chem Column                      119.760
  ===> Total Chemistry                     121.218
  => WRF                                   808.186
  ===> Total WRF-GC                        929.404
 max optd  3.9754773E+32
 max taucldi  0.1530934    
 max taucldw  1.2363067E-04
 Switching is not necessary as we are already
 in the right domain!
 GIGC_Chunk_Run: Running for in-PET grid #           1
 GIGC_Chunk_Run: Received new grid IM, JM, LM =          15           9
          49
 =================================================
 W R F - G C   T I M E R S
    Domain           1 (Units: s)
 =================================================
  => Coupler Component                       1.498
   -- Physics & Parameterization             0.389
   -- Diagnostics Out                        0.000
  => GEOS-Chem Column                      120.819
  ===> Total Chemistry                     122.317
  => WRF                                   826.244
  ===> Total WRF-GC                        948.561
 max optd  3.9754773E+32
 max taucldi  0.1587208    
 max taucldw  1.2014894E-04
 Switching is not necessary as we are already
 in the right domain!
 GIGC_Chunk_Run: Running for in-PET grid #           1
 GIGC_Chunk_Run: Received new grid IM, JM, LM =          15           9
          49
 =================================================
 W R F - G C   T I M E R S
    Domain           1 (Units: s)
 =================================================
  => Coupler Component                       1.537
   -- Physics & Parameterization             0.399
   -- Diagnostics Out                        0.000
  => GEOS-Chem Column                      121.874
  ===> Total Chemistry                     123.411
  => WRF                                   844.579
  ===> Total WRF-GC                        967.990
 max optd  3.9754773E+32
 max taucldi  0.1628800    
 max taucldw  1.1690713E-04
 Switching is not necessary as we are already
 in the right domain!
 GIGC_Chunk_Run: Running for in-PET grid #           1
 GIGC_Chunk_Run: Received new grid IM, JM, LM =          15           9
          49
 =================================================
 W R F - G C   T I M E R S
    Domain           1 (Units: s)
 =================================================
  => Coupler Component                       1.579
   -- Physics & Parameterization             0.409
   -- Diagnostics Out                        0.000
  => GEOS-Chem Column                      122.923
  ===> Total Chemistry                     124.502
  => WRF                                   862.739
  ===> Total WRF-GC                        987.241
 max optd  3.9754773E+32
 max taucldi  0.1622054    
 max taucldw  1.1394092E-04
 Switching is not necessary as we are already
 in the right domain!
 GIGC_Chunk_Run: Running for in-PET grid #           1
 GIGC_Chunk_Run: Received new grid IM, JM, LM =          15           9
          49
 =================================================
 W R F - G C   T I M E R S
    Domain           1 (Units: s)
 =================================================
  => Coupler Component                       1.613
   -- Physics & Parameterization             0.419
   -- Diagnostics Out                        0.000
  => GEOS-Chem Column                      123.991
  ===> Total Chemistry                     125.604
  => WRF                                   880.798
  ===> Total WRF-GC                       1006.403
 max optd  3.9754773E+32
 max taucldi  0.1603498    
 max taucldw  1.1133789E-04
 Switching is not necessary as we are already
 in the right domain!
 GIGC_Chunk_Run: Running for in-PET grid #           1
 GIGC_Chunk_Run: Received new grid IM, JM, LM =          15           9
          49
 =================================================
 W R F - G C   T I M E R S
    Domain           1 (Units: s)
 =================================================
  => Coupler Component                       1.653
   -- Physics & Parameterization             0.428
   -- Diagnostics Out                        0.000
  => GEOS-Chem Column                      125.048
  ===> Total Chemistry                     126.700
  => WRF                                   898.991
  ===> Total WRF-GC                       1025.691
 max optd  3.9754773E+32
 max taucldi  0.1576951    
 max taucldw  1.1009044E-04
 Switching is not necessary as we are already
 in the right domain!
 GIGC_Chunk_Run: Running for in-PET grid #           1
 GIGC_Chunk_Run: Received new grid IM, JM, LM =          15           9
          49
 =================================================
 W R F - G C   T I M E R S
    Domain           1 (Units: s)
 =================================================
  => Coupler Component                       1.694
   -- Physics & Parameterization             0.437
   -- Diagnostics Out                        0.000
  => GEOS-Chem Column                      126.095
  ===> Total Chemistry                     127.789
  => WRF                                   917.129
  ===> Total WRF-GC                       1044.918
 max optd  3.9754773E+32
 max taucldi  0.1554949    
 max taucldw  1.0944007E-04
 Switching is not necessary as we are already
 in the right domain!
 GIGC_Chunk_Run: Running for in-PET grid #           1
 GIGC_Chunk_Run: Received new grid IM, JM, LM =          15           9
          49
 =================================================
 W R F - G C   T I M E R S
    Domain           1 (Units: s)
 =================================================
  => Coupler Component                       1.735
   -- Physics & Parameterization             0.447
   -- Diagnostics Out                        0.000
  => GEOS-Chem Column                      127.137
  ===> Total Chemistry                     128.872
  => WRF                                   935.223
  ===> Total WRF-GC                       1064.095
 max optd  3.9754773E+32
 max taucldi  0.1556400    
 max taucldw  1.0931990E-04
 Switching is not necessary as we are already
 in the right domain!
 GIGC_Chunk_Run: Running for in-PET grid #           1
 GIGC_Chunk_Run: Received new grid IM, JM, LM =          15           9
          49
 =================================================
 W R F - G C   T I M E R S
    Domain           1 (Units: s)
 =================================================
  => Coupler Component                       1.776
   -- Physics & Parameterization             0.457
   -- Diagnostics Out                        0.000
  => GEOS-Chem Column                      128.180
  ===> Total Chemistry                     129.956
  => WRF                                   953.368
  ===> Total WRF-GC                       1083.325
 HOURLY EMISSIONS UPDATE TIME    14400.0       0.0
mediation_integrate: med_read_wrf_chem_emissions: Read emissions for time 2018-01-01_04:00:00
 max optd  3.9754773E+32
 max taucldi  0.1522971    
 max taucldw  1.0986235E-04
 Switching is not necessary as we are already
 in the right domain!
 GIGC_Chunk_Run: Running for in-PET grid #           1
 GIGC_Chunk_Run: Received new grid IM, JM, LM =          15           9
          49
 =================================================
 W R F - G C   T I M E R S
    Domain           1 (Units: s)
 =================================================
  => Coupler Component                       1.811
   -- Physics & Parameterization             0.467
   -- Diagnostics Out                        0.000
  => GEOS-Chem Column                      129.248
  ===> Total Chemistry                     131.059
  => WRF                                   971.528
  ===> Total WRF-GC                       1102.587
 max optd  3.9754773E+32
 max taucldi  0.1523597    
 max taucldw  1.1101292E-04
 Switching is not necessary as we are already
 in the right domain!
 GIGC_Chunk_Run: Running for in-PET grid #           1
 GIGC_Chunk_Run: Received new grid IM, JM, LM =          15           9
          49
 =================================================
 W R F - G C   T I M E R S
    Domain           1 (Units: s)
 =================================================
  => Coupler Component                       1.846
   -- Physics & Parameterization             0.476
   -- Diagnostics Out                        0.000
  => GEOS-Chem Column                      130.317
  ===> Total Chemistry                     132.163
  => WRF                                   989.647
  ===> Total WRF-GC                       1121.810
 max optd  3.9754773E+32
 max taucldi  0.1640881    
 max taucldw  1.1260150E-04
 Switching is not necessary as we are already
 in the right domain!
 GIGC_Chunk_Run: Running for in-PET grid #           1
 GIGC_Chunk_Run: Received new grid IM, JM, LM =          15           9
          49
 =================================================
 W R F - G C   T I M E R S
    Domain           1 (Units: s)
 =================================================
  => Coupler Component                       1.890
   -- Physics & Parameterization             0.486
   -- Diagnostics Out                        0.000
  => GEOS-Chem Column                      131.355
  ===> Total Chemistry                     133.244
  => WRF                                  1007.828
  ===> Total WRF-GC                       1141.073
 max optd  3.9754773E+32
 max taucldi  0.1872260    
 max taucldw  1.1438858E-04
 Switching is not necessary as we are already
 in the right domain!
 GIGC_Chunk_Run: Running for in-PET grid #           1
 GIGC_Chunk_Run: Received new grid IM, JM, LM =          15           9
          49
 =================================================
 W R F - G C   T I M E R S
    Domain           1 (Units: s)
 =================================================
  => Coupler Component                       1.926
   -- Physics & Parameterization             0.495
   -- Diagnostics Out                        0.000
  => GEOS-Chem Column                      132.421
  ===> Total Chemistry                     134.347
  => WRF                                  1025.991
  ===> Total WRF-GC                       1160.338
 max optd  3.9754773E+32
 max taucldi  0.2255085    
 max taucldw  1.1604706E-04
 Switching is not necessary as we are already
 in the right domain!
 GIGC_Chunk_Run: Running for in-PET grid #           1
 GIGC_Chunk_Run: Received new grid IM, JM, LM =          15           9
          49
 =================================================
 W R F - G C   T I M E R S
    Domain           1 (Units: s)
 =================================================
  => Coupler Component                       1.959
   -- Physics & Parameterization             0.505
   -- Diagnostics Out                        0.000
  => GEOS-Chem Column                      133.456
  ===> Total Chemistry                     135.416
  => WRF                                  1044.141
  ===> Total WRF-GC                       1179.556
 max optd  3.9754773E+32
 max taucldi  0.2291627    
 max taucldw  1.1744138E-04
 Switching is not necessary as we are already
 in the right domain!
 GIGC_Chunk_Run: Running for in-PET grid #           1
 GIGC_Chunk_Run: Received new grid IM, JM, LM =          15           9
          49
 =================================================
 W R F - G C   T I M E R S
    Domain           1 (Units: s)
 =================================================
  => Coupler Component                       2.000
   -- Physics & Parameterization             0.514
   -- Diagnostics Out                        0.000
  => GEOS-Chem Column                      134.490
  ===> Total Chemistry                     136.490
  => WRF                                  1062.281
  ===> Total WRF-GC                       1198.771
 max optd  3.9754773E+32
 max taucldi  0.2275381    
 max taucldw  1.1837004E-04
 Switching is not necessary as we are already
 in the right domain!
 GIGC_Chunk_Run: Running for in-PET grid #           1
 GIGC_Chunk_Run: Received new grid IM, JM, LM =          15           9
          49
 =================================================
 W R F - G C   T I M E R S
    Domain           1 (Units: s)
 =================================================
  => Coupler Component                       2.043
   -- Physics & Parameterization             0.524
   -- Diagnostics Out                        0.000
  => GEOS-Chem Column                      135.534
  ===> Total Chemistry                     137.576
  => WRF                                  1080.484
  ===> Total WRF-GC                       1218.060
 max optd  3.9754773E+32
 max taucldi  0.2952796    
 max taucldw  1.1887249E-04
 Switching is not necessary as we are already
 in the right domain!
 GIGC_Chunk_Run: Running for in-PET grid #           1
 GIGC_Chunk_Run: Received new grid IM, JM, LM =          15           9
          49
 =================================================
 W R F - G C   T I M E R S
    Domain           1 (Units: s)
 =================================================
  => Coupler Component                       2.080
   -- Physics & Parameterization             0.533
   -- Diagnostics Out                        0.000
  => GEOS-Chem Column                      136.595
  ===> Total Chemistry                     138.675
  => WRF                                  1098.610
  ===> Total WRF-GC                       1237.285
 max optd  3.9754773E+32
 max taucldi  0.3644347    
 max taucldw  1.1882257E-04
 Switching is not necessary as we are already
 in the right domain!
 GIGC_Chunk_Run: Running for in-PET grid #           1
 GIGC_Chunk_Run: Received new grid IM, JM, LM =          15           9
          49
 =================================================
 W R F - G C   T I M E R S
    Domain           1 (Units: s)
 =================================================
  => Coupler Component                       2.118
   -- Physics & Parameterization             0.543
   -- Diagnostics Out                        0.000
  => GEOS-Chem Column                      137.658
  ===> Total Chemistry                     139.776
  => WRF                                  1116.747
  ===> Total WRF-GC                       1256.523
 max optd  3.9754773E+32
 max taucldi  0.4071672    
 max taucldw  1.1842774E-04
 Switching is not necessary as we are already
 in the right domain!
 GIGC_Chunk_Run: Running for in-PET grid #           1
 GIGC_Chunk_Run: Received new grid IM, JM, LM =          15           9
          49
 =================================================
 W R F - G C   T I M E R S
    Domain           1 (Units: s)
 =================================================
  => Coupler Component                       2.155
   -- Physics & Parameterization             0.552
   -- Diagnostics Out                        0.000
  => GEOS-Chem Column                      138.723
  ===> Total Chemistry                     140.878
  => WRF                                  1134.863
  ===> Total WRF-GC                       1275.741
 max optd  3.9754773E+32
 max taucldi  0.4116439    
 max taucldw  1.1640020E-04
 Switching is not necessary as we are already
 in the right domain!
 GIGC_Chunk_Run: Running for in-PET grid #           1
 GIGC_Chunk_Run: Received new grid IM, JM, LM =          15           9
          49
 =================================================
 W R F - G C   T I M E R S
    Domain           1 (Units: s)
 =================================================
  => Coupler Component                       2.193
   -- Physics & Parameterization             0.561
   -- Diagnostics Out                        0.000
  => GEOS-Chem Column                      139.786
  ===> Total Chemistry                     141.979
  => WRF                                  1152.941
  ===> Total WRF-GC                       1294.920
 max optd  3.9754773E+32
 max taucldi  0.4039555    
 max taucldw  1.1542591E-04
 Switching is not necessary as we are already
 in the right domain!
 GIGC_Chunk_Run: Running for in-PET grid #           1
 GIGC_Chunk_Run: Received new grid IM, JM, LM =          15           9
          49
 =================================================
 W R F - G C   T I M E R S
    Domain           1 (Units: s)
 =================================================
  => Coupler Component                       2.233
   -- Physics & Parameterization             0.570
   -- Diagnostics Out                        0.000
  => GEOS-Chem Column                      140.836
  ===> Total Chemistry                     143.069
  => WRF                                  1170.996
  ===> Total WRF-GC                       1314.065
 HOURLY EMISSIONS UPDATE TIME    18000.0       0.0
mediation_integrate: med_read_wrf_chem_emissions: Read emissions for time 2018-01-01_05:00:00
 max optd  3.9754773E+32
 max taucldi  0.3934935    
 max taucldw  1.1520171E-04
 Switching is not necessary as we are already
 in the right domain!
 GIGC_Chunk_Run: Running for in-PET grid #           1
 GIGC_Chunk_Run: Received new grid IM, JM, LM =          15           9
          49
 =================================================
 W R F - G C   T I M E R S
    Domain           1 (Units: s)
 =================================================
  => Coupler Component                       2.272
   -- Physics & Parameterization             0.580
   -- Diagnostics Out                        0.000
  => GEOS-Chem Column                      141.891
  ===> Total Chemistry                     144.163
  => WRF                                  1189.160
  ===> Total WRF-GC                       1333.323
 max optd  3.9754773E+32
 max taucldi  0.3805816    
 max taucldw  1.1529410E-04
 Switching is not necessary as we are already
 in the right domain!
 GIGC_Chunk_Run: Running for in-PET grid #           1
 GIGC_Chunk_Run: Received new grid IM, JM, LM =          15           9
          49
 =================================================
 W R F - G C   T I M E R S
    Domain           1 (Units: s)
 =================================================
  => Coupler Component                       2.310
   -- Physics & Parameterization             0.589
   -- Diagnostics Out                        0.000
  => GEOS-Chem Column                      142.950
  ===> Total Chemistry                     145.260
  => WRF                                  1207.265
  ===> Total WRF-GC                       1352.525
 max optd  3.9754773E+32
 max taucldi  0.3546122    
 max taucldw  1.1563074E-04
 Switching is not necessary as we are already
 in the right domain!
 GIGC_Chunk_Run: Running for in-PET grid #           1
 GIGC_Chunk_Run: Received new grid IM, JM, LM =          15           9
          49
 =================================================
 W R F - G C   T I M E R S
    Domain           1 (Units: s)
 =================================================
  => Coupler Component                       2.345
   -- Physics & Parameterization             0.599
   -- Diagnostics Out                        0.000
  => GEOS-Chem Column                      144.017
  ===> Total Chemistry                     146.362
  => WRF                                  1225.350
  ===> Total WRF-GC                       1371.712
 max optd  3.9754773E+32
 max taucldi  0.3417615    
 max taucldw  1.1597790E-04
 Switching is not necessary as we are already
 in the right domain!
 GIGC_Chunk_Run: Running for in-PET grid #           1
 GIGC_Chunk_Run: Received new grid IM, JM, LM =          15           9
          49
 =================================================
 W R F - G C   T I M E R S
    Domain           1 (Units: s)
 =================================================
  => Coupler Component                       2.386
   -- Physics & Parameterization             0.608
   -- Diagnostics Out                        0.000
  => GEOS-Chem Column                      145.059
  ===> Total Chemistry                     147.445
  => WRF                                  1243.465
  ===> Total WRF-GC                       1390.910
 max optd  3.9754773E+32
 max taucldi  0.3285311    
 max taucldw  1.1604983E-04
 Switching is not necessary as we are already
 in the right domain!
 GIGC_Chunk_Run: Running for in-PET grid #           1
 GIGC_Chunk_Run: Received new grid IM, JM, LM =          15           9
          49
 =================================================
 W R F - G C   T I M E R S
    Domain           1 (Units: s)
 =================================================
  => Coupler Component                       2.423
   -- Physics & Parameterization             0.618
   -- Diagnostics Out                        0.000
  => GEOS-Chem Column                      146.118
  ===> Total Chemistry                     148.541
  => WRF                                  1261.667
  ===> Total WRF-GC                       1410.208
 max optd  3.9754773E+32
 max taucldi  0.3425338    
 max taucldw  1.1625775E-04
 Switching is not necessary as we are already
 in the right domain!
 GIGC_Chunk_Run: Running for in-PET grid #           1
 GIGC_Chunk_Run: Received new grid IM, JM, LM =          15           9
          49
 =================================================
 W R F - G C   T I M E R S
    Domain           1 (Units: s)
 =================================================
  => Coupler Component                       2.466
   -- Physics & Parameterization             0.628
   -- Diagnostics Out                        0.000
  => GEOS-Chem Column                      147.148
  ===> Total Chemistry                     149.614
  => WRF                                  1279.739
  ===> Total WRF-GC                       1429.352
 max optd  3.9754773E+32
 max taucldi  0.3368130    
 max taucldw  1.1661847E-04
 Switching is not necessary as we are already
 in the right domain!
 GIGC_Chunk_Run: Running for in-PET grid #           1
 GIGC_Chunk_Run: Received new grid IM, JM, LM =          15           9
          49
 =================================================
 W R F - G C   T I M E R S
    Domain           1 (Units: s)
 =================================================
  => Coupler Component                       2.504
   -- Physics & Parameterization             0.637
   -- Diagnostics Out                        0.000
  => GEOS-Chem Column                      148.211
  ===> Total Chemistry                     150.714
  => WRF                                  1297.957
  ===> Total WRF-GC                       1448.671
 max optd  3.9754773E+32
 max taucldi  0.3219973    
 max taucldw  1.1706015E-04
 Switching is not necessary as we are already
 in the right domain!
 GIGC_Chunk_Run: Running for in-PET grid #           1
 GIGC_Chunk_Run: Received new grid IM, JM, LM =          15           9
          49
 =================================================
 W R F - G C   T I M E R S
    Domain           1 (Units: s)
 =================================================
  => Coupler Component                       2.542
   -- Physics & Parameterization             0.647
   -- Diagnostics Out                        0.000
  => GEOS-Chem Column                      149.267
  ===> Total Chemistry                     151.808
  => WRF                                  1316.067
  ===> Total WRF-GC                       1467.875
 max optd  3.9754773E+32
 max taucldi  0.3105037    
 max taucldw  1.1745612E-04
 Switching is not necessary as we are already
 in the right domain!
 GIGC_Chunk_Run: Running for in-PET grid #           1
 GIGC_Chunk_Run: Received new grid IM, JM, LM =          15           9
          49
 =================================================
 W R F - G C   T I M E R S
    Domain           1 (Units: s)
 =================================================
  => Coupler Component                       2.578
   -- Physics & Parameterization             0.656
   -- Diagnostics Out                        0.000
  => GEOS-Chem Column                      150.330
  ===> Total Chemistry                     152.908
  => WRF                                  1334.226
  ===> Total WRF-GC                       1487.134
 max optd  3.9754773E+32
 max taucldi  0.3042034    
 max taucldw  1.1773658E-04
 Switching is not necessary as we are already
 in the right domain!
 GIGC_Chunk_Run: Running for in-PET grid #           1
 GIGC_Chunk_Run: Received new grid IM, JM, LM =          15           9
          49
 =================================================
 W R F - G C   T I M E R S
    Domain           1 (Units: s)
 =================================================
  => Coupler Component                       2.619
   -- Physics & Parameterization             0.666
   -- Diagnostics Out                        0.000
  => GEOS-Chem Column                      151.356
  ===> Total Chemistry                     153.976
  => WRF                                  1352.609
  ===> Total WRF-GC                       1506.584
 max optd  3.9754773E+32
 max taucldi  0.2994305    
 max taucldw  1.1792262E-04
 Switching is not necessary as we are already
 in the right domain!
 GIGC_Chunk_Run: Running for in-PET grid #           1
 GIGC_Chunk_Run: Received new grid IM, JM, LM =          15           9
          49
 =================================================
 W R F - G C   T I M E R S
    Domain           1 (Units: s)
 =================================================
  => Coupler Component                       2.654
   -- Physics & Parameterization             0.675
   -- Diagnostics Out                        0.000
  => GEOS-Chem Column                      152.426
  ===> Total Chemistry                     155.080
  => WRF                                  1370.777
  ===> Total WRF-GC                       1525.858
 max optd  3.9754773E+32
 max taucldi  0.3056912    
 max taucldw  1.1807821E-04
 Switching is not necessary as we are already
 in the right domain!
 GIGC_Chunk_Run: Running for in-PET grid #           1
 GIGC_Chunk_Run: Received new grid IM, JM, LM =          15           9
          49
 =================================================
 W R F - G C   T I M E R S
    Domain           1 (Units: s)
 =================================================
  => Coupler Component                       2.689
   -- Physics & Parameterization             0.684
   -- Diagnostics Out                        0.000
  => GEOS-Chem Column                      153.484
  ===> Total Chemistry                     156.173
  => WRF                                  1388.894
  ===> Total WRF-GC                       1545.067
 HOURLY EMISSIONS UPDATE TIME    21600.0       0.0
mediation_integrate: med_read_wrf_chem_emissions: Read emissions for time 2018-01-01_06:00:00
 max optd  3.9754773E+32
 max taucldi  0.3056317    
 max taucldw  1.1835078E-04
 Switching is not necessary as we are already
 in the right domain!
 GIGC_Chunk_Run: Running for in-PET grid #           1
 GIGC_Chunk_Run: Received new grid IM, JM, LM =          15           9
          49
 =================================================
 W R F - G C   T I M E R S
    Domain           1 (Units: s)
 =================================================
  => Coupler Component                       2.726
   -- Physics & Parameterization             0.693
   -- Diagnostics Out                        0.000
  => GEOS-Chem Column                      154.553
  ===> Total Chemistry                     157.278
  => WRF                                  1847.568
  ===> Total WRF-GC                       2004.847
 max optd  3.9754773E+32
 max taucldi  0.3071862    
 max taucldw  1.1895705E-04
 Switching is not necessary as we are already
 in the right domain!
 GIGC_Chunk_Run: Running for in-PET grid #           1
 GIGC_Chunk_Run: Received new grid IM, JM, LM =          15           9
          49
 =================================================
 W R F - G C   T I M E R S
    Domain           1 (Units: s)
 =================================================
  => Coupler Component                       2.763
   -- Physics & Parameterization             0.703
   -- Diagnostics Out                        0.000
  => GEOS-Chem Column                      155.607
  ===> Total Chemistry                     158.370
  => WRF                                  1865.689
  ===> Total WRF-GC                       2024.059
 max optd  3.9754773E+32
 max taucldi  0.3092194    
 max taucldw  1.1967348E-04
 Switching is not necessary as we are already
 in the right domain!
 GIGC_Chunk_Run: Running for in-PET grid #           1
 GIGC_Chunk_Run: Received new grid IM, JM, LM =          15           9
          49
 =================================================
 W R F - G C   T I M E R S
    Domain           1 (Units: s)
 =================================================
  => Coupler Component                       2.799
   -- Physics & Parameterization             0.713
   -- Diagnostics Out                        0.000
  => GEOS-Chem Column                      156.631
  ===> Total Chemistry                     159.430
  => WRF                                  1883.948
  ===> Total WRF-GC                       2043.378
 max optd  3.9754773E+32
 max taucldi  0.3120108    
 max taucldw  1.2024592E-04
 Switching is not necessary as we are already
 in the right domain!
 GIGC_Chunk_Run: Running for in-PET grid #           1
 GIGC_Chunk_Run: Received new grid IM, JM, LM =          15           9
          49
 =================================================
 W R F - G C   T I M E R S
    Domain           1 (Units: s)
 =================================================
  => Coupler Component                       2.835
[...]
  => GEOS-Chem Column                      203.855
  ===> Total Chemistry                     208.408
  => WRF                                  2702.187
  ===> Total WRF-GC                       2910.595
 HOURLY EMISSIONS UPDATE TIME    36000.0       0.0
mediation_integrate: med_read_wrf_chem_emissions: Read emissions for time 2018-01-01_10:00:00
 max optd  3.9754773E+32
 max taucldi  4.2226687E-02
 max taucldw  1.3706845E-04
 Switching is not necessary as we are already
 in the right domain!
 GIGC_Chunk_Run: Running for in-PET grid #           1
 GIGC_Chunk_Run: Received new grid IM, JM, LM =          15           9
          49
 =================================================
 W R F - G C   T I M E R S
    Domain           1 (Units: s)
 =================================================
  => Coupler Component                       4.596
   -- Physics & Parameterization             1.151
   -- Diagnostics Out                        0.000
  => GEOS-Chem Column                      204.887
  ===> Total Chemistry                     209.483
  => WRF                                  2720.431
  ===> Total WRF-GC                       2929.914
 max optd  3.9754773E+32
 max taucldi  4.3957643E-02
 max taucldw  1.3546860E-04
 Switching is not necessary as we are already
 in the right domain!
 GIGC_Chunk_Run: Running for in-PET grid #           1
 GIGC_Chunk_Run: Received new grid IM, JM, LM =          15           9
          49
 =================================================
 W R F - G C   T I M E R S
    Domain           1 (Units: s)
 =================================================
  => Coupler Component                       4.633
   -- Physics & Parameterization             1.161
   -- Diagnostics Out                        0.000
  => GEOS-Chem Column                      205.941
  ===> Total Chemistry                     210.574
  => WRF                                  2738.617
  ===> Total WRF-GC                       2949.192
 max optd  3.9754773E+32
 max taucldi  4.4577222E-02
 max taucldw  1.3250711E-04
 Switching is not necessary as we are already
 in the right domain!
 GIGC_Chunk_Run: Running for in-PET grid #           1
 GIGC_Chunk_Run: Received new grid IM, JM, LM =          15           9
          49
 =================================================
 W R F - G C   T I M E R S
    Domain           1 (Units: s)
 =================================================
  => Coupler Component                       4.675
   -- Physics & Parameterization             1.170
   -- Diagnostics Out                        0.000
  => GEOS-Chem Column                      206.990
  ===> Total Chemistry                     211.665
  => WRF                                  2756.760
  ===> Total WRF-GC                       2968.425
 max optd  3.9754773E+32
 max taucldi  4.4134967E-02
 max taucldw  1.2840724E-04
 Switching is not necessary as we are already
 in the right domain!
 GIGC_Chunk_Run: Running for in-PET grid #           1
 GIGC_Chunk_Run: Received new grid IM, JM, LM =          15           9
          49
 =================================================
 W R F - G C   T I M E R S
    Domain           1 (Units: s)
 =================================================
  => Coupler Component                       4.713
   -- Physics & Parameterization             1.180
   -- Diagnostics Out                        0.000
  => GEOS-Chem Column                      208.050
  ===> Total Chemistry                     212.763
  => WRF                                  2775.002
  ===> Total WRF-GC                       2987.765
 max optd  3.9754773E+32
 max taucldi  4.2613823E-02
 max taucldw  1.2402104E-04
 Switching is not necessary as we are already
 in the right domain!
 GIGC_Chunk_Run: Running for in-PET grid #           1
 GIGC_Chunk_Run: Received new grid IM, JM, LM =          15           9
          49
 =================================================
 W R F - G C   T I M E R S
    Domain           1 (Units: s)
 =================================================
  => Coupler Component                       4.753
   -- Physics & Parameterization             1.189
   -- Diagnostics Out                        0.000
  => GEOS-Chem Column                      209.102
  ===> Total Chemistry                     213.855
  => WRF                                  2793.182
  ===> Total WRF-GC                       3007.037
 max optd  3.9754773E+32
 max taucldi  4.0955763E-02
 max taucldw  1.2077015E-04
 Switching is not necessary as we are already
 in the right domain!
 GIGC_Chunk_Run: Running for in-PET grid #           1
 GIGC_Chunk_Run: Received new grid IM, JM, LM =          15           9
          49
 =================================================
 W R F - G C   T I M E R S
    Domain           1 (Units: s)
 =================================================
  => Coupler Component                       4.790
   -- Physics & Parameterization             1.199
   -- Diagnostics Out                        0.000
  => GEOS-Chem Column                      210.124
  ===> Total Chemistry                     214.914
  => WRF                                  2811.251
  ===> Total WRF-GC                       3026.165
 max optd  3.9754773E+32
 max taucldi  3.9778966E-02
 max taucldw  1.1907355E-04
 Switching is not necessary as we are already
 in the right domain!
 GIGC_Chunk_Run: Running for in-PET grid #           1
 GIGC_Chunk_Run: Received new grid IM, JM, LM =          15           9
          49
 =================================================
 W R F - G C   T I M E R S
    Domain           1 (Units: s)
 =================================================
  => Coupler Component                       4.832
   -- Physics & Parameterization             1.209
   -- Diagnostics Out                        0.000
  => GEOS-Chem Column                      211.164
  ===> Total Chemistry                     215.996
  => WRF                                  2829.494
  ===> Total WRF-GC                       3045.490
 max optd  3.9754773E+32
 max taucldi  3.7311494E-02
 max taucldw  1.2143022E-04
 Switching is not necessary as we are already
 in the right domain!
 GIGC_Chunk_Run: Running for in-PET grid #           1
 GIGC_Chunk_Run: Received new grid IM, JM, LM =          15           9
          49
 =================================================
 W R F - G C   T I M E R S
    Domain           1 (Units: s)
 =================================================
  => Coupler Component                       4.873
   -- Physics & Parameterization             1.218
   -- Diagnostics Out                        0.000
  => GEOS-Chem Column                      212.210
  ===> Total Chemistry                     217.083
  => WRF                                  2847.672
  ===> Total WRF-GC                       3064.754
 max optd  3.9754773E+32
 max taucldi  3.4832183E-02
 max taucldw  1.2459849E-04
 Switching is not necessary as we are already
 in the right domain!
 GIGC_Chunk_Run: Running for in-PET grid #           1
 GIGC_Chunk_Run: Received new grid IM, JM, LM =          15           9
          49
 =================================================
 W R F - G C   T I M E R S
    Domain           1 (Units: s)
 =================================================
  => Coupler Component                       4.915
   -- Physics & Parameterization             1.228
   -- Diagnostics Out                        0.000
  => GEOS-Chem Column                      213.256
  ===> Total Chemistry                     218.171
  => WRF                                  2865.809
  ===> Total WRF-GC                       3083.980
 max optd  3.9754773E+32
 max taucldi  3.3204067E-02
 max taucldw  1.2703986E-04
 Switching is not necessary as we are already
 in the right domain!
 GIGC_Chunk_Run: Running for in-PET grid #           1
 GIGC_Chunk_Run: Received new grid IM, JM, LM =          15           9
          49
 =================================================
 W R F - G C   T I M E R S
    Domain           1 (Units: s)
 =================================================
  => Coupler Component                       4.955
   -- Physics & Parameterization             1.237
   -- Diagnostics Out                        0.000
  => GEOS-Chem Column                      214.303
  ===> Total Chemistry                     219.258
  => WRF                                  2884.024
  ===> Total WRF-GC                       3103.282
 max optd  3.9754773E+32
 max taucldi  4.3989208E-02
 max taucldw  1.2824233E-04
 Switching is not necessary as we are already
 in the right domain!
 GIGC_Chunk_Run: Running for in-PET grid #           1
 GIGC_Chunk_Run: Received new grid IM, JM, LM =          15           9
          49
 =================================================
 W R F - G C   T I M E R S
    Domain           1 (Units: s)
 =================================================
  => Coupler Component                       4.996
   -- Physics & Parameterization             1.247
   -- Diagnostics Out                        0.000
  => GEOS-Chem Column                      215.354
  ===> Total Chemistry                     220.350
  => WRF                                  2902.174
  ===> Total WRF-GC                       3122.524
 max optd  3.9754773E+32
 max taucldi  5.0613232E-02
 max taucldw  1.2803660E-04
 Switching is not necessary as we are already
 in the right domain!
 GIGC_Chunk_Run: Running for in-PET grid #           1
 GIGC_Chunk_Run: Received new grid IM, JM, LM =          15           9
          49
 =================================================
 W R F - G C   T I M E R S
    Domain           1 (Units: s)
 =================================================
  => Coupler Component                       5.039
   -- Physics & Parameterization             1.256
   -- Diagnostics Out                        0.000
  => GEOS-Chem Column                      216.396
  ===> Total Chemistry                     221.435
  => WRF                                  2920.379
  ===> Total WRF-GC                       3141.814
 HOURLY EMISSIONS UPDATE TIME    39600.0       0.0
mediation_integrate: med_read_wrf_chem_emissions: Read emissions for time 2018-01-01_11:00:00
 max optd  3.9754773E+32
 max taucldi  4.8455272E-02
 max taucldw  1.2749019E-04
 Switching is not necessary as we are already
 in the right domain!
 GIGC_Chunk_Run: Running for in-PET grid #           1
 GIGC_Chunk_Run: Received new grid IM, JM, LM =          15           9
          49
 =================================================
 W R F - G C   T I M E R S
    Domain           1 (Units: s)
 =================================================
  => Coupler Component                       5.076
   -- Physics & Parameterization             1.266
   -- Diagnostics Out                        0.000
  => GEOS-Chem Column                      217.443
  ===> Total Chemistry                     222.519
  => WRF                                  2938.558
  ===> Total WRF-GC                       3161.077
 max optd  3.9754773E+32
 max taucldi  9.4804235E-02
 max taucldw  1.2762187E-04
 Switching is not necessary as we are already
 in the right domain!
 GIGC_Chunk_Run: Running for in-PET grid #           1
 GIGC_Chunk_Run: Received new grid IM, JM, LM =          15           9
          49
 =================================================
 W R F - G C   T I M E R S
    Domain           1 (Units: s)
 =================================================
  => Coupler Component                       5.117
   -- Physics & Parameterization             1.275
   -- Diagnostics Out                        0.000
  => GEOS-Chem Column                      218.477
  ===> Total Chemistry                     223.595
  => WRF                                  2956.712
  ===> Total WRF-GC                       3180.307
 max optd  3.9754773E+32
 max taucldi  0.1214611    
 max taucldw  1.2783043E-04
 Switching is not necessary as we are already
 in the right domain!
 GIGC_Chunk_Run: Running for in-PET grid #           1
 GIGC_Chunk_Run: Received new grid IM, JM, LM =          15           9
          49
 =================================================
 W R F - G C   T I M E R S
    Domain           1 (Units: s)
 =================================================
  => Coupler Component                       5.158
   -- Physics & Parameterization             1.285
   -- Diagnostics Out                        0.000
  => GEOS-Chem Column                      219.521
  ===> Total Chemistry                     224.680
  => WRF                                  2974.965
  ===> Total WRF-GC                       3199.644
 max optd  3.9754773E+32
 max taucldi  0.1329470    
 max taucldw  1.2822884E-04
 Switching is not necessary as we are already
 in the right domain!
 GIGC_Chunk_Run: Running for in-PET grid #           1
 GIGC_Chunk_Run: Received new grid IM, JM, LM =          15           9
          49
 =================================================
 W R F - G C   T I M E R S
    Domain           1 (Units: s)
 =================================================
  => Coupler Component                       5.194
   -- Physics & Parameterization             1.294
   -- Diagnostics Out                        0.000
  => GEOS-Chem Column                      220.577
  ===> Total Chemistry                     225.771
  => WRF                                  2993.251
  ===> Total WRF-GC                       3219.021
 max optd  3.9754773E+32
 max taucldi  0.1370535    
 max taucldw  1.2874855E-04
 Switching is not necessary as we are already
 in the right domain!
 GIGC_Chunk_Run: Running for in-PET grid #           1
 GIGC_Chunk_Run: Received new grid IM, JM, LM =          15           9
          49
 =================================================
 W R F - G C   T I M E R S
    Domain           1 (Units: s)
 =================================================
  => Coupler Component                       5.230
   -- Physics & Parameterization             1.304
   -- Diagnostics Out                        0.000
  => GEOS-Chem Column                      221.617
  ===> Total Chemistry                     226.847
  => WRF                                  3011.671
  ===> Total WRF-GC                       3238.518
 max optd  3.9754773E+32
 max taucldi  0.1634700    
 max taucldw  1.2935251E-04
 Switching is not necessary as we are already
 in the right domain!
 GIGC_Chunk_Run: Running for in-PET grid #           1
 GIGC_Chunk_Run: Received new grid IM, JM, LM =          15           9
          49
 =================================================
 W R F - G C   T I M E R S
    Domain           1 (Units: s)
 =================================================
  => Coupler Component                       5.264
   -- Physics & Parameterization             1.313
   -- Diagnostics Out                        0.000
  => GEOS-Chem Column                      222.667
  ===> Total Chemistry                     227.931
  => WRF                                  3030.083
  ===> Total WRF-GC                       3258.013
 max optd  3.9754773E+32
 max taucldi  0.1746141    
 max taucldw  1.2990359E-04
 Switching is not necessary as we are already
 in the right domain!
 GIGC_Chunk_Run: Running for in-PET grid #           1
 GIGC_Chunk_Run: Received new grid IM, JM, LM =          15           9
          49
 =================================================
 W R F - G C   T I M E R S
    Domain           1 (Units: s)
 =================================================
  => Coupler Component                       5.300
   -- Physics & Parameterization             1.323
   -- Diagnostics Out                        0.000
  => GEOS-Chem Column                      223.711
  ===> Total Chemistry                     229.012
  => WRF                                  3048.627
  ===> Total WRF-GC                       3277.639
 max optd  3.9754773E+32
 max taucldi  0.1906560    
 max taucldw  1.3017861E-04
 Switching is not necessary as we are already
 in the right domain!
 GIGC_Chunk_Run: Running for in-PET grid #           1
 GIGC_Chunk_Run: Received new grid IM, JM, LM =          15           9
          49
 =================================================
 W R F - G C   T I M E R S
    Domain           1 (Units: s)
 =================================================
  => Coupler Component                       5.336
   -- Physics & Parameterization             1.333
   -- Diagnostics Out                        0.000
  => GEOS-Chem Column                      224.756
  ===> Total Chemistry                     230.093
  => WRF                                  3067.228
  ===> Total WRF-GC                       3297.320
 max optd  3.9754773E+32
 max taucldi  0.1894058    
 max taucldw  1.3008009E-04
 Switching is not necessary as we are already
 in the right domain!
 GIGC_Chunk_Run: Running for in-PET grid #           1
 GIGC_Chunk_Run: Received new grid IM, JM, LM =          15           9
          49
 =================================================
 W R F - G C   T I M E R S
    Domain           1 (Units: s)
 =================================================
  => Coupler Component                       5.371
   -- Physics & Parameterization             1.342
   -- Diagnostics Out                        0.000
  => GEOS-Chem Column                      225.790
  ===> Total Chemistry                     231.160
  => WRF                                  3085.901
  ===> Total WRF-GC                       3317.061
 max optd  3.9754773E+32
 max taucldi  0.1881998    
 max taucldw  1.2950243E-04
 Switching is not necessary as we are already
 in the right domain!
 GIGC_Chunk_Run: Running for in-PET grid #           1
 GIGC_Chunk_Run: Received new grid IM, JM, LM =          15           9
          49
 =================================================
 W R F - G C   T I M E R S
    Domain           1 (Units: s)
 =================================================
  => Coupler Component                       5.405
   -- Physics & Parameterization             1.351
   -- Diagnostics Out                        0.000
  => GEOS-Chem Column                      226.837
  ===> Total Chemistry                     232.242
  => WRF                                  3104.842
  ===> Total WRF-GC                       3337.084
 max optd  3.9754773E+32
 max taucldi  0.2003448    
 max taucldw  1.2847720E-04
 Switching is not necessary as we are already
 in the right domain!
 GIGC_Chunk_Run: Running for in-PET grid #           1
 GIGC_Chunk_Run: Received new grid IM, JM, LM =          15           9
          49
 =================================================
 W R F - G C   T I M E R S
    Domain           1 (Units: s)
 =================================================
  => Coupler Component                       5.437
   -- Physics & Parameterization             1.361
   -- Diagnostics Out                        0.000
  => GEOS-Chem Column                      227.858
  ===> Total Chemistry                     233.295
  => WRF                                  3123.638
  ===> Total WRF-GC                       3356.933
 max optd  3.9754773E+32
 max taucldi  0.2082764    
 max taucldw  1.2734870E-04
 Switching is not necessary as we are already
 in the right domain!
 GIGC_Chunk_Run: Running for in-PET grid #           1
 GIGC_Chunk_Run: Received new grid IM, JM, LM =          15           9
          49
 =================================================
 W R F - G C   T I M E R S
    Domain           1 (Units: s)
 =================================================
  => Coupler Component                       5.470
   -- Physics & Parameterization             1.371
   -- Diagnostics Out                        0.000
  => GEOS-Chem Column                      228.900
  ===> Total Chemistry                     234.370
  => WRF                                  3142.437
  ===> Total WRF-GC                       3376.806
d01 2018-01-01_12:00:00 wrf: SUCCESS COMPLETE WRF
