taskid: 939 hostname: ip-172-31-3-121
Quilting with   1 groups of   0 I/O tasks.
 Ntasks in X           64 , ntasks in Y           72
--- WARNING: traj_opt is zero, but num_traj is not zero; setting num_traj to zero.
--- NOTE: sst_update is 0, setting io_form_auxinput4 = 0 and auxinput4_interval = 0 for all domains
--- NOTE: grid_fdda is 0 for domain      1, setting gfdda interval and ending time to 0 for that domain.
--- NOTE: both grid_sfdda and pxlsm_soil_nudge are 0 for domain      1, setting sgfdda interval and ending time to 0 for that domain.
--- NOTE: obs_nudge_opt is 0 for domain      1, setting obs nudging interval and ending time to 0 for that domain.
--- NOTE: bl_pbl_physics /= 4, implies mfshconv must be 0, resetting
Need MYNN PBL for icloud_bl = 1, resetting to 0
*************************************
No physics suite selected.
Physics options will be used directly from the namelist.
*************************************
--- NOTE: RRTMG radiation is in use, setting:  levsiz=59, alevsiz=12, no_src_types=6
--- NOTE: num_soil_layers has been set to      4
WRF V3.9.1.1 MODEL
 *************************************
 Parent domain
 ids,ide,jds,jde            1         950           1         650
 ims,ime,jms,jme          629         657         121         143
 ips,ipe,jps,jpe          636         650         128         136
 *************************************
DYNAMICS OPTION: Eulerian Mass Coordinate
   alloc_space_field: domain            1 ,              203623800  bytes allocated
  med_initialdata_input: calling input_input
Max map factor in domain 1 =  1.40. Scale the dt in the model accordingly.
INPUT LandUse = "USGS"
 LANDUSE TYPE = "USGS" FOUND          33  CATEGORIES           2  SEASONS WATER CATEGORY =           16  SNOW CATEGORY =           24
INITIALIZE THREE Noah LSM RELATED TABLES
*****************************************************************
  __          _______  ______       _____  _____ _    _ _____
  \ \        / /  __ \|  ____|     / ____|/ ____| |  | |  __ \
   \ \  /\  / /| |__) | |__ ______| |  __| |    | |__| | |__) |
    \ \/  \/ / |  _  /|  __|______| | |_ | |    |  __  |  ___/
     \  /\  /  | | \ \| |         | |__| | |____| |  | | |
      \/  \/   |_|  \_\_|          \_____|\_____|_|  |_|_|
*****************************************************************
         WRF-GC MODEL, VERSION 1811.11 - WRF BINDINGS
 For errors, suggestions & feedback email linhaipeng@pku.edu.cn
*****************************************************************
    This is domain            1
 ### GIGC_Stateful_Mod: Root CPU, after READ_INPUT_FILE
  Linoz Data:  O3 climatology :                  z*=10, 12, ..., 58                             2.700E-08 1.083E-05
  Linoz Data:  Temperature climatology :         z*=10, 12, ..., 58                             1.859E+02 2.904E+02
  Linoz Data:  Column O3 above box climalology : z*=10, 12, ..., 58                             7.538E-02 3.770E+02
  Linoz Data:  P-L O3 climatology (mr/s):        z*=10, 12, ..., 58                            -1.590E-10 2.835E-11
  Linoz Data:  d(P-L)/dO3 (1/s) :                z*=10, 12, ..., 58                            -8.386E-04 7.556E-09
  Linoz Data:  d(P-L)/dT (mr/K) :                z*=10, 12, ..., 58                            -5.742E-12 4.615E-14
  Linoz Data:  d(P-L)/d(column O3) (mr/DU) :     z*=10, 12, ..., 58                            -1.921E-12 5.038E-10
 ### GIGC_Stateful_Mod: Root CPU, after LINOZ_READ
 %%%%%%%%% GIGC IN-PET GRID SWITCHING HACKS %%%%%%%%%
     (Not very) Proudly brought to you by hplin      
 Some debug information:
 ID:           1
 IM, JM, LM:          15           9          49  will be set as PAR
 Allocs: CMN T GC F
 RC at entry-point:           0
 %%%%%%%%%%%%%%%%%%%%%%%%%%%%%%%%%%%%%%%%%%%%%%%%%%%%
 No need to switch HcoState for ID           1
 Exit RC:            0
 %%%%%%%%%    FINISHED GIGC_Switch_Dims    %%%%%%%%%
 GIGC_Chunk_Init: Received new grid IM, JM, LM =          15           9
          49
     ### GIGC_INIT_SIMULATION: after Input_Opt% setups
     ### GIGC_INIT_SIMULATION: after GC_Init_All
     ### GIGC_INIT_SIMULATION: after GC_Init_Extra
     ### GIGC_INIT_SIMULATION: after INIT_FJX
 # GIGC_CHUNK_MOD: after SV save, ID =           1
 WRFGC chemics_init: Following information regarding Input_Opt% (for all doms)
 After domain           1
 HPC:  T
 LPRT:  F
 DoConv:  T
 DoDryDep:  T
 DoEmis:  T
 DoChem:  T
 DoTurb:  T
 DoWetDep:  T

 tropopause_init: DONE intialized domain            1

 mediation_integrate: med_read_wrf_chem_emissions: Open file wrfchemi_00z_d01
 HOURLY EMISSIONS UPDATE TIME        0.0       0.0
mediation_integrate: med_read_wrf_chem_emissions: Read emissions for time 2018-01-01_00:00:00
open_aux_u : error opening wrffirechemi_d01_2018-01-01_00:00:00 for reading. 100
open_aux_u : error opening wrfchemi_gocart_bg_d01 for reading. 100
d01 2018-01-01_00:00:00 Input data processed for aux input   8 for domain   1
open_aux_u : error opening wrfchemv_d01 for reading. 100
 Tile Strategy is not specified. Assuming 1D-Y
WRF TILE   1 IS    636 IE    650 JS    128 JE    136
WRF NUMBER OF TILES =   1
 max optd  3.3547268E+12
 max taucldi  0.0000000E+00
 max taucldw  0.0000000E+00
 =================================================
 W R F - G C   T I M E R S
    Domain           1 (Units: s)
 =================================================
  => Coupler Component                       0.033
   -- Physics & Parameterization             0.001
   -- Diagnostics Out                        0.000
  => GEOS-Chem Column                        0.000
  ===> Total Chemistry                       0.033
  => WRF                                     0.000
  ===> Total WRF-GC                          0.033
 max optd  3.3547268E+12
 max taucldi  1.0000005E-14
 max taucldw  1.0000005E-14
 %%%%%%%%% GIGC IN-PET GRID SWITCHING HACKS %%%%%%%%%
     (Not very) Proudly brought to you by hplin      
 Some debug information:
 ID:           1
 IM, JM, LM:          15           9          49  will be set as PAR
 Allocs: CMN T GC T
 RC at entry-point:           0
 %%%%%%%%%%%%%%%%%%%%%%%%%%%%%%%%%%%%%%%%%%%%%%%%%%%%
 No need to switch HcoState for ID           1
 Debug HcoState nSpc, NX, NY, NZ         163          15           9          49
 Exit RC:            0
 %%%%%%%%%    FINISHED GIGC_Switch_Dims    %%%%%%%%%
 GIGC_Chunk_Run: Running for in-PET grid #           1
 GIGC_Chunk_Run: Received new grid IM, JM, LM =          15           9
          49
HEMCO: Opening /fsx/HEMCO/BIOFUEL/v2014-07/biofuel.geos.4x5.nc
HEMCO: Opening /fsx/HEMCO/BROMINE/v2015-02/Bromocarb_Liang2010.nc
HEMCO: Opening /fsx/HEMCO/ACET/v2014-07/ACET_seawater.generic.1x1.nc
HEMCO: Opening /fsx/HEMCO/SOILNOX/v2014-07/DepReservoirDefault.nc
HEMCO: Opening /fsx/HEMCO/SOILNOX/v2014-07/soilNOx.landtype.generic.025x025.1L.nc
HEMCO: Opening /fsx/HEMCO/SOILNOX/v2014-07/soilNOx.climate.generic.05x05.nc
HEMCO: Opening /fsx/HEMCO/DUST_DEAD/v2014-07/dst_tibds.geos.4x5.nc
HEMCO: Opening /fsx/HEMCO/DUST_DEAD/v2014-07/GOCART_src_fn.geos.4x5.nc
HEMCO: Opening /fsx/HEMCO/MEGAN/v2018-05/MEGAN2.1_EF.geos.025x03125.nc
HEMCO: Opening /fsx/HEMCO/MEGAN/v2017-07/CLM4_PFT.geos.025x03125.nc
HEMCO: Opening /fsx/HEMCO/TIMEZONES/v2015-02/timezones_voronoi_1x1.nc
HEMCO: Opening /fsx/HEMCO/STRAT/v2015-01/Bry/GEOSCCM_Bry.200701.day.nc
HEMCO: Opening /fsx/HEMCO/STRAT/v2015-01/Bry/GEOSCCM_Bry.200701.night.nc
HEMCO: Opening /fsx/HEMCO/OMOC/v2018-01/OMOC.DJF.01x01.nc
HEMCO: Opening /fsx/HEMCO/OMOC/v2018-01/OMOC.MAM.01x01.nc
HEMCO: Opening /fsx/HEMCO/OMOC/v2018-01/OMOC.JJA.01x01.nc
HEMCO: Opening /fsx/HEMCO/OMOC/v2018-01/OMOC.SON.01x01.nc
HEMCO: Opening /fsx/HEMCO/AnnualScalar/v2014-07/AnnualScalar.geos.1x1.nc
HEMCO: Opening /fsx/HEMCO/EDGARv42/v2015-02/NO/EDGAR_hourly_NOxScal.nc
HEMCO: Opening /fsx/HEMCO/MASKS/v2018-09/EMEP_mask.geos.1x1.20151222.nc
HEMCO: Opening /fsx/HEMCO/MASKS/v2018-09/Canada_mask.geos.1x1.nc
HEMCO: Opening /fsx/HEMCO/MASKS/v2018-09/SE_Asia_mask.generic.1x1.nc
HEMCO: Opening /fsx/HEMCO/MASKS/v2018-09/MIX_Asia_mask.generic.025x025.nc
HEMCO: Opening /fsx/HEMCO/MASKS/v2018-09/CONUS_Mask.01x01.nc
HEMCO: Opening /fsx/HEMCO/MASKS/v2018-09/AF_LANDMASK.geos.05x0666.global.nc
HEMCO: Opening /fsx/HEMCO/MASKS/v2018-09/China_mask.generic.1x1.nc
HEMCO: Opening /fsx/HEMCO/MASKS/v2018-09/India_mask.generic.1x1.nc
HEMCO: Opening /fsx/HEMCO/AnnualScalar/v2014-07/AnnualScalar.geos.1x1.nc
HEMCO: Opening /fsx/HEMCO/NH3/v2014-07/NH3_geos.4x5.nc
HEMCO: Opening /fsx/HEMCO/NH3/v2018-04/NH3_Arctic_seabirds.nc
HEMCO: Opening /fsx/HEMCO/CEDS/v2018-08/2014/NO-em-anthro_CMIP_CEDS_2014.nc
HEMCO: Opening /fsx/HEMCO/CEDS/v2018-08/2014/CO-em-anthro_CMIP_CEDS_2014.nc
HEMCO: Opening /fsx/HEMCO/CEDS/v2018-08/2014/SO2-em-anthro_CMIP_CEDS_2014.nc
HEMCO: Opening /fsx/HEMCO/CEDS/v2018-08/2014/NH3-em-anthro_CMIP_CEDS_2014.nc
HEMCO: Opening /fsx/HEMCO/CEDS/v2018-08/2014/BC-em-anthro_CMIP_CEDS_2014.nc
HEMCO: Opening /fsx/HEMCO/CEDS/v2018-08/2014/OC-em-anthro_CMIP_CEDS_2014.nc
HEMCO: Opening /fsx/HEMCO/CEDS/v2018-08/2014/EOH-em-anthro_CMIP_CEDS_2014.nc
HEMCO: Opening /fsx/HEMCO/CEDS/v2018-08/2014/C2H6-em-anthro_CMIP_CEDS_2014.nc
HEMCO: Opening /fsx/HEMCO/CEDS/v2018-08/2014/C3H8-em-anthro_CMIP_CEDS_2014.nc
HEMCO: Opening /fsx/HEMCO/CEDS/v2018-08/2014/ALK4_butanes-em-anthro_CMIP_CEDS_2014.nc
HEMCO: Opening /fsx/HEMCO/CEDS/v2018-08/2014/ALK4_pentanes-em-anthro_CMIP_CEDS_2014.nc
HEMCO: Opening /fsx/HEMCO/CEDS/v2018-08/2014/ALK4_hexanes-em-anthro_CMIP_CEDS_2014.nc
HEMCO: Opening /fsx/HEMCO/CEDS/v2018-08/2014/PRPE-em-anthro_CMIP_CEDS_2014.nc
HEMCO: Opening /fsx/HEMCO/CEDS/v2018-08/2014/BENZ-em-anthro_CMIP_CEDS_2014.nc
HEMCO: Opening /fsx/HEMCO/CEDS/v2018-08/2014/TOLU-em-anthro_CMIP_CEDS_2014.nc
HEMCO: Opening /fsx/HEMCO/CEDS/v2018-08/2014/XYLE-em-anthro_CMIP_CEDS_2014.nc
HEMCO: Opening /fsx/HEMCO/CEDS/v2018-08/2014/CH2O-em-anthro_CMIP_CEDS_2014.nc
HEMCO: Opening /fsx/HEMCO/CEDS/v2018-08/2014/ALD2-em-anthro_CMIP_CEDS_2014.nc
HEMCO: Opening /fsx/HEMCO/CEDS/v2018-08/2014/MEK-em-anthro_CMIP_CEDS_2014.nc
HEMCO: Opening /fsx/HEMCO/CEDS/v2018-08/2014/HCOOH-em-anthro_CMIP_CEDS_2014.nc
HEMCO: Opening /fsx/HEMCO/C2H6_2010/v2017-05/C2H6_global_anth_biof.201001.nc
HEMCO: Opening /fsx/HEMCO/NEI2011/v2017-02-MM/01/NEI11_0.1x0.1_201101_monmean.nc
HEMCO: Opening /fsx/HEMCO/NEI2011/v2017-02-MM/01/NEI11_0.1x0.1_201101_monmean_egu.nc
HEMCO: Opening /fsx/HEMCO/NEI2011/v2017-02-MM/01/NEI11_0.1x0.1_201101_monmean_egupk.nc
HEMCO: Opening /fsx/HEMCO/NEI2011/v2017-02-MM/01/NEI11_0.1x0.1_201101_monmean_oilgas.nc
HEMCO: Opening /fsx/HEMCO/NEI2011/v2017-02-MM/01/NEI11_0.1x0.1_201101_monmean_othpt.nc
HEMCO: Opening /fsx/HEMCO/NEI2011/v2017-02-MM/01/NEI11_0.1x0.1_201101_monmean_ptnonipm.nc
HEMCO: Opening /fsx/HEMCO/IODINE/v2017-09/CH3I_monthly_emissions_Ordonez_2012_COARDS.nc
HEMCO: Opening /fsx/HEMCO/IODINE/v2017-09/CH2I2_monthly_emissions_Ordonez_2012_COARDS.nc
HEMCO: Opening /fsx/HEMCO/IODINE/v2017-09/CH2ICl_monthly_emissions_Ordonez_2012_COARDS.nc
HEMCO: Opening /fsx/HEMCO/IODINE/v2017-09/CH2IBr_monthly_emissions_Ordonez_2012_COARDS.nc
HEMCO: Opening /fsx/HEMCO/CEDS/v2018-08/2014/CO-em-anthro_CMIP_CEDS_2014.nc
HEMCO: Opening /fsx/HEMCO/CEDS/v2018-08/2014/SO2-em-anthro_CMIP_CEDS_2014.nc
HEMCO: Opening /fsx/HEMCO/CEDS/v2018-08/2014/NH3-em-anthro_CMIP_CEDS_2014.nc
HEMCO: Opening /fsx/HEMCO/CEDS/v2018-08/2014/BC-em-anthro_CMIP_CEDS_2014.nc
HEMCO: Opening /fsx/HEMCO/CEDS/v2018-08/2014/OC-em-anthro_CMIP_CEDS_2014.nc
HEMCO: Opening /fsx/HEMCO/CEDS/v2018-08/2014/EOH-em-anthro_CMIP_CEDS_2014.nc
HEMCO: Opening /fsx/HEMCO/CEDS/v2018-08/2014/C2H6-em-anthro_CMIP_CEDS_2014.nc
HEMCO: Opening /fsx/HEMCO/CEDS/v2018-08/2014/C3H8-em-anthro_CMIP_CEDS_2014.nc
HEMCO: Opening /fsx/HEMCO/CEDS/v2018-08/2014/ALK4_butanes-em-anthro_CMIP_CEDS_2014.nc
HEMCO: Opening /fsx/HEMCO/CEDS/v2018-08/2014/ALK4_pentanes-em-anthro_CMIP_CEDS_2014.nc
HEMCO: Opening /fsx/HEMCO/CEDS/v2018-08/2014/ALK4_hexanes-em-anthro_CMIP_CEDS_2014.nc
HEMCO: Opening /fsx/HEMCO/CEDS/v2018-08/2014/PRPE-em-anthro_CMIP_CEDS_2014.nc
HEMCO: Opening /fsx/HEMCO/CEDS/v2018-08/2014/BENZ-em-anthro_CMIP_CEDS_2014.nc
HEMCO: Opening /fsx/HEMCO/CEDS/v2018-08/2014/TOLU-em-anthro_CMIP_CEDS_2014.nc
HEMCO: Opening /fsx/HEMCO/CEDS/v2018-08/2014/XYLE-em-anthro_CMIP_CEDS_2014.nc
HEMCO: Opening /fsx/HEMCO/CEDS/v2018-08/2014/CH2O-em-anthro_CMIP_CEDS_2014.nc
HEMCO: Opening /fsx/HEMCO/CEDS/v2018-08/2014/ALD2-em-anthro_CMIP_CEDS_2014.nc
HEMCO: Opening /fsx/HEMCO/CEDS/v2018-08/2014/MEK-em-anthro_CMIP_CEDS_2014.nc
HEMCO: Opening /fsx/HEMCO/CEDS/v2018-08/2014/HCOOH-em-anthro_CMIP_CEDS_2014.nc
HEMCO: Opening /fsx/HEMCO/CEDS/v2018-08/2014/NO-em-anthro_CMIP_CEDS_2014.nc
HEMCO: Opening /fsx/HEMCO/AEIC/v2015-01/AEIC.47L.gen.1x1.nc
HEMCO: Opening /fsx/HEMCO/ALD2/v2017-03/resp.geos.2x25.nc
HEMCO: Opening /fsx/HEMCO/DMS/v2015-07/DMS_lana.geos.1x1.nc
HEMCO: Opening /fsx/HEMCO/ALD2/v2017-03/ALD2_seawater.geos.2x25.nc
HEMCO: Opening /fsx/HEMCO/DUST_DEAD/v2014-07/dst_tvbds.geos.4x5.nc
HEMCO: Opening /fsx/HEMCO/DUST_DEAD/v2018-04/PM25FINE_ECLIPSE_2015.geos.2x25.nc
HEMCO: Opening /fsx/HEMCO/SOA/v2014-07/NVOC.geos.1x1.nc
HEMCO: Opening /fsx/HEMCO/GFED4/v2015-10/2016/GFED4_gen.025x025.201601.nc
HEMCO: Opening /fsx/HEMCO/UVALBEDO/v2015-03/uvalbedo.geos.2x25.nc
HEMCO: Opening /fsx/HEMCO/GMI/v2015-02/gmi.clim.ACET.geos5.2x25.nc
HEMCO: Opening /fsx/HEMCO/GMI/v2015-02/gmi.clim.ACTA.geos5.2x25.nc
HEMCO: Opening /fsx/HEMCO/GMI/v2015-02/gmi.clim.ALD2.geos5.2x25.nc
HEMCO: Opening /fsx/HEMCO/GMI/v2015-02/gmi.clim.ALK4.geos5.2x25.nc
HEMCO: Opening /fsx/HEMCO/GMI/v2015-02/gmi.clim.C2H6.geos5.2x25.nc
HEMCO: Opening /fsx/HEMCO/GMI/v2015-02/gmi.clim.C3H8.geos5.2x25.nc
HEMCO: Opening /fsx/HEMCO/GMI/v2015-02/gmi.clim.CCl4.geos5.2x25.nc
HEMCO: Opening /fsx/HEMCO/GMI/v2015-02/gmi.clim.CF2Cl2.geos5.2x25.nc
HEMCO: Opening /fsx/HEMCO/GMI/v2015-02/gmi.clim.CF2ClBr.geos5.2x25.nc
HEMCO: Opening /fsx/HEMCO/GMI/v2015-02/gmi.clim.CFC113.geos5.2x25.nc
HEMCO: Opening /fsx/HEMCO/GMI/v2015-02/gmi.clim.CFC114.geos5.2x25.nc
HEMCO: Opening /fsx/HEMCO/GMI/v2015-02/gmi.clim.CFC115.geos5.2x25.nc
HEMCO: Opening /fsx/HEMCO/GMI/v2015-02/gmi.clim.CFCl3.geos5.2x25.nc
HEMCO: Opening /fsx/HEMCO/GMI/v2015-02/gmi.clim.CH2O.geos5.2x25.nc
HEMCO: Opening /fsx/HEMCO/GMI/v2015-02/gmi.clim.CH3CCl3.geos5.2x25.nc
HEMCO: Opening /fsx/HEMCO/GMI/v2015-02/gmi.clim.CH3Cl.geos5.2x25.nc
HEMCO: Opening /fsx/HEMCO/GMI/v2015-02/gmi.clim.CH4.geos5.2x25.nc
HEMCO: Opening /fsx/HEMCO/GMI/v2015-02/gmi.clim.CO.geos5.2x25.nc
HEMCO: Opening /fsx/HEMCO/GMI/v2015-02/gmi.clim.Cl.geos5.2x25.nc
HEMCO: Opening /fsx/HEMCO/GMI/v2015-02/gmi.clim.Cl2.geos5.2x25.nc
HEMCO: Opening /fsx/HEMCO/GMI/v2015-02/gmi.clim.Cl2O2.geos5.2x25.nc
HEMCO: Opening /fsx/HEMCO/GMI/v2015-02/gmi.clim.ClO.geos5.2x25.nc
HEMCO: Opening /fsx/HEMCO/GMI/v2015-02/gmi.clim.EOH.geos5.2x25.nc
HEMCO: Opening /fsx/HEMCO/GMI/v2015-02/gmi.clim.GLYC.geos5.2x25.nc
HEMCO: Opening /fsx/HEMCO/GMI/v2015-02/gmi.clim.GLYX.geos5.2x25.nc
HEMCO: Opening /fsx/HEMCO/GMI/v2015-02/gmi.clim.H2402.geos5.2x25.nc
HEMCO: Opening /fsx/HEMCO/GMI/v2015-02/gmi.clim.H2O.geos5.2x25.nc
HEMCO: Opening /fsx/HEMCO/GMI/v2015-02/gmi.clim.H2O2.geos5.2x25.nc
HEMCO: Opening /fsx/HEMCO/GMI/v2015-02/gmi.clim.HAC.geos5.2x25.nc
HEMCO: Opening /fsx/HEMCO/GMI/v2015-02/gmi.clim.HCFC141b.geos5.2x25.nc
HEMCO: Opening /fsx/HEMCO/GMI/v2015-02/gmi.clim.HCFC142b.geos5.2x25.nc
HEMCO: Opening /fsx/HEMCO/GMI/v2015-02/gmi.clim.HCFC22.geos5.2x25.nc
HEMCO: Opening /fsx/HEMCO/GMI/v2015-02/gmi.clim.HCOOH.geos5.2x25.20170108.nc
HEMCO: Opening /fsx/HEMCO/GMI/v2015-02/gmi.clim.HCl.geos5.2x25.nc
HEMCO: Opening /fsx/HEMCO/GMI/v2015-02/gmi.clim.HNO2.geos5.2x25.nc
HEMCO: Opening /fsx/HEMCO/GMI/v2015-02/gmi.clim.HNO3.geos5.2x25.nc
HEMCO: Opening /fsx/HEMCO/GMI/v2015-02/gmi.clim.HNO4.geos5.2x25.nc
HEMCO: Opening /fsx/HEMCO/GMI/v2015-02/gmi.clim.HOCl.geos5.2x25.nc
HEMCO: Opening /fsx/HEMCO/GMI/v2015-02/gmi.clim.ISN1.geos5.2x25.nc
HEMCO: Opening /fsx/HEMCO/GMI/v2015-02/gmi.clim.ISOP.geos5.2x25.nc
HEMCO: Opening /fsx/HEMCO/GMI/v2015-02/gmi.clim.MACR.geos5.2x25.nc
HEMCO: Opening /fsx/HEMCO/GMI/v2015-02/gmi.clim.MAP.geos5.2x25.nc
HEMCO: Opening /fsx/HEMCO/GMI/v2015-02/gmi.clim.MEK.geos5.2x25.nc
HEMCO: Opening /fsx/HEMCO/GMI/v2015-02/gmi.clim.MGLY.geos5.2x25.nc
HEMCO: Opening /fsx/HEMCO/GMI/v2015-02/gmi.clim.MP.geos5.2x25.nc
HEMCO: Opening /fsx/HEMCO/GMI/v2015-02/gmi.clim.MVK.geos5.2x25.nc
HEMCO: Opening /fsx/HEMCO/GMI/v2015-02/gmi.clim.N2O.geos5.2x25.nc
HEMCO: Opening /fsx/HEMCO/GMI/v2015-02/gmi.clim.N2O5.geos5.2x25.nc
HEMCO: Opening /fsx/HEMCO/GMI/v2015-02/gmi.clim.NO.geos5.2x25.nc
HEMCO: Opening /fsx/HEMCO/GMI/v2015-02/gmi.clim.NO2.geos5.2x25.nc
HEMCO: Opening /fsx/HEMCO/GMI/v2015-02/gmi.clim.NO3.geos5.2x25.nc
HEMCO: Opening /fsx/HEMCO/GMI/v2015-02/gmi.clim.O3.geos5.2x25.nc
HEMCO: Opening /fsx/HEMCO/GMI/v2015-02/gmi.clim.OClO.geos5.2x25.nc
HEMCO: Opening /fsx/HEMCO/GMI/v2015-02/gmi.clim.PAN.geos5.2x25.nc
HEMCO: Opening /fsx/HEMCO/GMI/v2015-02/gmi.clim.NPMN.geos5.2x25.nc
HEMCO: Opening /fsx/HEMCO/GMI/v2015-02/gmi.clim.IPMN.geos5.2x25.nc
HEMCO: Opening /fsx/HEMCO/GMI/v2015-02/gmi.clim.PPN.geos5.2x25.nc
HEMCO: Opening /fsx/HEMCO/GMI/v2015-02/gmi.clim.PRPE.geos5.2x25.nc
HEMCO: Opening /fsx/HEMCO/GMI/v2015-02/gmi.clim.R4N2.geos5.2x25.nc
HEMCO: Opening /fsx/HEMCO/GMI/v2015-02/gmi.clim.RCHO.geos5.2x25.nc
HEMCO: Opening /fsx/HEMCO/GMI/v2015-02/gmi.clim.RIPA.geos5.2x25.nc
HEMCO: Opening /fsx/HEMCO/GMI/v2015-02/gmi.clim.RIPB.geos5.2x25.nc
HEMCO: Opening /fsx/HEMCO/GMI/v2015-02/gmi.clim.RIPD.geos5.2x25.nc
HEMCO: Opening /fsx/HEMCO/GMI/v2015-02/gmi.clim.OH.geos5.2x25.nc
HEMCO: Opening /fsx/HEMCO/NOAA_GMD/v2018-01/monthly.gridded.surface.methane.1979-2020.1x1.nc
HEMCO: Opening /fsx/HEMCO/GEIA/v2014-07/GEIA_monthscal.generic.1x1.nc
HEMCO: Opening /fsx/HEMCO/EMEP/v2015-03/EMEP.Seasonal.geos.1x1.nc
HEMCO: Opening /fsx/HEMCO/BROMINE/v2015-02/BromoCarb_Season.nc
HEMCO: Opening /fsx/HEMCO/EDGARv43/v2016-11/EDGAR_v43.Seasonal.1x1.nc
HEMCO: Opening /fsx/HEMCO/NEI2005/v2014-09/scaling/NEI99.dow.geos.1x1.nc
HEMCO: Opening /fsx/HEMCO/VOLCANO/v2015-02/2009/volc_so2_gen.1x1.47L.200901.nc
HEMCO: Opening /fsx/HEMCO/SOILNOX/v2014-07/soilNOx.fert_res.generic.05x05.nc
 vdinti: pbl height will be limited to bottom           25  model levels. top is
     431.250100000000       hpa
 =================================================
 W R F - G C   T I M E R S
    Domain           1 (Units: s)
 =================================================
  => Coupler Component                       0.056
   -- Physics & Parameterization             0.010
   -- Diagnostics Out                        0.000
  => GEOS-Chem Column                      153.212
  ===> Total Chemistry                     153.269
  => WRF                                    17.340
  ===> Total WRF-GC                        170.609
 max optd  1.9364301E+31
 max taucldi  1.8605326E-07
 max taucldw  8.8998149E-06
 Switching is not necessary as we are already
 in the right domain!
 GIGC_Chunk_Run: Running for in-PET grid #           1
 GIGC_Chunk_Run: Received new grid IM, JM, LM =          15           9
          49
 =================================================
 W R F - G C   T I M E R S
    Domain           1 (Units: s)
 =================================================
  => Coupler Component                       0.087
   -- Physics & Parameterization             0.020
   -- Diagnostics Out                        0.000
  => GEOS-Chem Column                      154.392
  ===> Total Chemistry                     154.480
  => WRF                                    37.726
  ===> Total WRF-GC                        192.206
 max optd  1.9364301E+31
 max taucldi  3.2737199E-07
 max taucldw  1.2630746E-05
 Switching is not necessary as we are already
 in the right domain!
 GIGC_Chunk_Run: Running for in-PET grid #           1
 GIGC_Chunk_Run: Received new grid IM, JM, LM =          15           9
          49
 =================================================
 W R F - G C   T I M E R S
    Domain           1 (Units: s)
 =================================================
  => Coupler Component                       0.119
   -- Physics & Parameterization             0.030
   -- Diagnostics Out                        0.000
  => GEOS-Chem Column                      155.473
  ===> Total Chemistry                     155.591
  => WRF                                    58.403
  ===> Total WRF-GC                        213.994
 max optd  1.9364301E+31
 max taucldi  4.7889796E-07
 max taucldw  2.0742767E-05
 Switching is not necessary as we are already
 in the right domain!
 GIGC_Chunk_Run: Running for in-PET grid #           1
 GIGC_Chunk_Run: Received new grid IM, JM, LM =          15           9
          49
 =================================================
 W R F - G C   T I M E R S
    Domain           1 (Units: s)
 =================================================
  => Coupler Component                       0.151
   -- Physics & Parameterization             0.041
   -- Diagnostics Out                        0.000
  => GEOS-Chem Column                      156.539
  ===> Total Chemistry                     156.691
  => WRF                                    77.402
  ===> Total WRF-GC                        234.093
 max optd  1.9364301E+31
 max taucldi  6.6471227E-07
 max taucldw  3.1095566E-05
 Switching is not necessary as we are already
 in the right domain!
 GIGC_Chunk_Run: Running for in-PET grid #           1
 GIGC_Chunk_Run: Received new grid IM, JM, LM =          15           9
          49
 =================================================
 W R F - G C   T I M E R S
    Domain           1 (Units: s)
 =================================================
  => Coupler Component                       0.192
   -- Physics & Parameterization             0.051
   -- Diagnostics Out                        0.000
  => GEOS-Chem Column                      157.562
  ===> Total Chemistry                     157.754
  => WRF                                    95.947
  ===> Total WRF-GC                        253.702
 max optd  1.9364301E+31
 max taucldi  8.8686323E-07
 max taucldw  4.2125350E-05
 Switching is not necessary as we are already
 in the right domain!
 GIGC_Chunk_Run: Running for in-PET grid #           1
 GIGC_Chunk_Run: Received new grid IM, JM, LM =          15           9
          49
 =================================================
 W R F - G C   T I M E R S
    Domain           1 (Units: s)
 =================================================
  => Coupler Component                       0.224
   -- Physics & Parameterization             0.061
   -- Diagnostics Out                        0.000
  => GEOS-Chem Column                      158.615
  ===> Total Chemistry                     158.839
  => WRF                                   114.439
  ===> Total WRF-GC                        273.278
 max optd  1.9364301E+31
 max taucldi  1.1250814E-06
 max taucldw  5.2082261E-05
 Switching is not necessary as we are already
 in the right domain!
 GIGC_Chunk_Run: Running for in-PET grid #           1
 GIGC_Chunk_Run: Received new grid IM, JM, LM =          15           9
          49
 =================================================
 W R F - G C   T I M E R S
    Domain           1 (Units: s)
 =================================================
  => Coupler Component                       0.258
   -- Physics & Parameterization             0.071
   -- Diagnostics Out                        0.000
  => GEOS-Chem Column                      159.662
  ===> Total Chemistry                     159.920
  => WRF                                   132.890
  ===> Total WRF-GC                        292.811
 max optd  1.9364301E+31
 max taucldi  1.3528747E-06
 max taucldw  6.0109778E-05
 Switching is not necessary as we are already
 in the right domain!
 GIGC_Chunk_Run: Running for in-PET grid #           1
 GIGC_Chunk_Run: Received new grid IM, JM, LM =          15           9
          49
 =================================================
 W R F - G C   T I M E R S
    Domain           1 (Units: s)
 =================================================
  => Coupler Component                       0.293
   -- Physics & Parameterization             0.081
   -- Diagnostics Out                        0.000
  => GEOS-Chem Column                      160.699
  ===> Total Chemistry                     160.992
  => WRF                                   151.272
  ===> Total WRF-GC                        312.265
 max optd  1.9364301E+31
 max taucldi  1.5316102E-06
 max taucldw  6.4983105E-05
 Switching is not necessary as we are already
 in the right domain!
 GIGC_Chunk_Run: Running for in-PET grid #           1
 GIGC_Chunk_Run: Received new grid IM, JM, LM =          15           9
          49
 =================================================
 W R F - G C   T I M E R S
    Domain           1 (Units: s)
 =================================================
  => Coupler Component                       0.328
   -- Physics & Parameterization             0.091
   -- Diagnostics Out                        0.000
  => GEOS-Chem Column                      161.720
  ===> Total Chemistry                     162.048
  => WRF                                   169.669
  ===> Total WRF-GC                        331.717
 max optd  1.9364301E+31
 max taucldi  1.6553380E-06
 max taucldw  6.7263441E-05
 Switching is not necessary as we are already
 in the right domain!
 GIGC_Chunk_Run: Running for in-PET grid #           1
 GIGC_Chunk_Run: Received new grid IM, JM, LM =          15           9
          49
 =================================================
 W R F - G C   T I M E R S
    Domain           1 (Units: s)
 =================================================
  => Coupler Component                       0.362
   -- Physics & Parameterization             0.101
   -- Diagnostics Out                        0.000
  => GEOS-Chem Column                      162.764
  ===> Total Chemistry                     163.126
  => WRF                                   188.137
  ===> Total WRF-GC                        351.263
 max optd  1.9364301E+31
 max taucldi  1.7237444E-06
 max taucldw  6.7519519E-05
 Switching is not necessary as we are already
 in the right domain!
 GIGC_Chunk_Run: Running for in-PET grid #           1
 GIGC_Chunk_Run: Received new grid IM, JM, LM =          15           9
          49
 =================================================
 W R F - G C   T I M E R S
    Domain           1 (Units: s)
 =================================================
  => Coupler Component                       0.398
   -- Physics & Parameterization             0.112
   -- Diagnostics Out                        0.000
  => GEOS-Chem Column                      163.785
  ===> Total Chemistry                     164.183
  => WRF                                   206.501
  ===> Total WRF-GC                        370.684
 max optd  1.9364301E+31
 max taucldi  1.7553666E-06
 max taucldw  6.6685468E-05
 Switching is not necessary as we are already
 in the right domain!
 GIGC_Chunk_Run: Running for in-PET grid #           1
 GIGC_Chunk_Run: Received new grid IM, JM, LM =          15           9
          49
 =================================================
 W R F - G C   T I M E R S
    Domain           1 (Units: s)
 =================================================
  => Coupler Component                       0.434
   -- Physics & Parameterization             0.121
   -- Diagnostics Out                        0.000
  => GEOS-Chem Column                      164.824
  ===> Total Chemistry                     165.258
  => WRF                                   224.776
  ===> Total WRF-GC                        390.033
 HOURLY EMISSIONS UPDATE TIME     3600.0       0.0
mediation_integrate: med_read_wrf_chem_emissions: Read emissions for time 2018-01-01_01:00:00
 max optd  1.9364301E+31
 max taucldi  1.7684279E-06
 max taucldw  6.5354696E-05
 Switching is not necessary as we are already
 in the right domain!
 GIGC_Chunk_Run: Running for in-PET grid #           1
 GIGC_Chunk_Run: Received new grid IM, JM, LM =          15           9
          49
 =================================================
 W R F - G C   T I M E R S
    Domain           1 (Units: s)
 =================================================
  => Coupler Component                       0.471
   -- Physics & Parameterization             0.131
   -- Diagnostics Out                        0.000
  => GEOS-Chem Column                      165.840
  ===> Total Chemistry                     166.311
  => WRF                                   243.110
  ===> Total WRF-GC                        409.420
 max optd  1.9364301E+31
 max taucldi  1.8060291E-06
 max taucldw  6.3883090E-05
 Switching is not necessary as we are already
 in the right domain!
 GIGC_Chunk_Run: Running for in-PET grid #           1
 GIGC_Chunk_Run: Received new grid IM, JM, LM =          15           9
          49
 =================================================
 W R F - G C   T I M E R S
    Domain           1 (Units: s)
 =================================================
  => Coupler Component                       0.507
   -- Physics & Parameterization             0.141
   -- Diagnostics Out                        0.000
  => GEOS-Chem Column                      166.880
  ===> Total Chemistry                     167.387
  => WRF                                   261.458
  ===> Total WRF-GC                        428.845
 max optd  1.9364301E+31
 max taucldi  1.8289412E-06
 max taucldw  6.2593892E-05
 Switching is not necessary as we are already
 in the right domain!
 GIGC_Chunk_Run: Running for in-PET grid #           1
 GIGC_Chunk_Run: Received new grid IM, JM, LM =          15           9
          49
 =================================================
 W R F - G C   T I M E R S
    Domain           1 (Units: s)
 =================================================
  => Coupler Component                       0.545
   -- Physics & Parameterization             0.151
   -- Diagnostics Out                        0.000
  => GEOS-Chem Column                      167.905
  ===> Total Chemistry                     168.450
  => WRF                                   279.651
  ===> Total WRF-GC                        448.102
 max optd  1.9364301E+31
 max taucldi  1.8433186E-06
 max taucldw  6.1380531E-05
 Switching is not necessary as we are already
 in the right domain!
 GIGC_Chunk_Run: Running for in-PET grid #           1
 GIGC_Chunk_Run: Received new grid IM, JM, LM =          15           9
          49
 =================================================
 W R F - G C   T I M E R S
    Domain           1 (Units: s)
 =================================================
  => Coupler Component                       0.584
   -- Physics & Parameterization             0.161
   -- Diagnostics Out                        0.000
  => GEOS-Chem Column                      168.924
  ===> Total Chemistry                     169.507
  => WRF                                   297.954
  ===> Total WRF-GC                        467.461
 max optd  1.9364301E+31
 max taucldi  1.8482090E-06
 max taucldw  6.0150007E-05
 Switching is not necessary as we are already
 in the right domain!
 GIGC_Chunk_Run: Running for in-PET grid #           1
 GIGC_Chunk_Run: Received new grid IM, JM, LM =          15           9
          49
 =================================================
 W R F - G C   T I M E R S
    Domain           1 (Units: s)
 =================================================
  => Coupler Component                       0.624
   -- Physics & Parameterization             0.172
   -- Diagnostics Out                        0.000
  => GEOS-Chem Column                      169.941
  ===> Total Chemistry                     170.565
  => WRF                                   316.212
  ===> Total WRF-GC                        486.777
 max optd  1.9364301E+31
 max taucldi  1.8466596E-06
 max taucldw  5.9137525E-05
 Switching is not necessary as we are already
 in the right domain!
 GIGC_Chunk_Run: Running for in-PET grid #           1
 GIGC_Chunk_Run: Received new grid IM, JM, LM =          15           9
          49
 =================================================
 W R F - G C   T I M E R S
    Domain           1 (Units: s)
 =================================================
  => Coupler Component                       0.665
   -- Physics & Parameterization             0.182
   -- Diagnostics Out                        0.000
  => GEOS-Chem Column                      170.964
  ===> Total Chemistry                     171.629
  => WRF                                   334.442
  ===> Total WRF-GC                        506.071
 max optd  1.9364301E+31
 max taucldi  1.8384557E-06
 max taucldw  5.8169622E-05
 Switching is not necessary as we are already
 in the right domain!
 GIGC_Chunk_Run: Running for in-PET grid #           1
 GIGC_Chunk_Run: Received new grid IM, JM, LM =          15           9
          49
 =================================================
 W R F - G C   T I M E R S
    Domain           1 (Units: s)
 =================================================
  => Coupler Component                       0.707
   -- Physics & Parameterization             0.191
   -- Diagnostics Out                        0.000
  => GEOS-Chem Column                      171.998
  ===> Total Chemistry                     172.705
  => WRF                                   352.718
  ===> Total WRF-GC                        525.423
 max optd  1.9364301E+31
 max taucldi  1.8316895E-06
 max taucldw  5.7507703E-05
 Switching is not necessary as we are already
 in the right domain!
 GIGC_Chunk_Run: Running for in-PET grid #           1
 GIGC_Chunk_Run: Received new grid IM, JM, LM =          15           9
          49
 =================================================
 W R F - G C   T I M E R S
    Domain           1 (Units: s)
 =================================================
  => Coupler Component                       0.754
   -- Physics & Parameterization             0.202
   -- Diagnostics Out                        0.000
  => GEOS-Chem Column                      173.022
  ===> Total Chemistry                     173.776
  => WRF                                   371.086
  ===> Total WRF-GC                        544.862
 max optd  1.9364301E+31
 max taucldi  1.8277593E-06
 max taucldw  5.6987905E-05
 Switching is not necessary as we are already
 in the right domain!
 GIGC_Chunk_Run: Running for in-PET grid #           1
 GIGC_Chunk_Run: Received new grid IM, JM, LM =          15           9
          49
 =================================================
 W R F - G C   T I M E R S
    Domain           1 (Units: s)
 =================================================
  => Coupler Component                       0.800
   -- Physics & Parameterization             0.212
   -- Diagnostics Out                        0.000
  => GEOS-Chem Column                      174.050
  ===> Total Chemistry                     174.850
  => WRF                                   389.206
  ===> Total WRF-GC                        564.056
 max optd  1.9364301E+31
 max taucldi  1.8273976E-06
 max taucldw  5.6606888E-05
 Switching is not necessary as we are already
 in the right domain!
 GIGC_Chunk_Run: Running for in-PET grid #           1
 GIGC_Chunk_Run: Received new grid IM, JM, LM =          15           9
          49
 =================================================
 W R F - G C   T I M E R S
    Domain           1 (Units: s)
 =================================================
  => Coupler Component                       0.847
   -- Physics & Parameterization             0.222
   -- Diagnostics Out                        0.000
  => GEOS-Chem Column                      175.081
  ===> Total Chemistry                     175.928
  => WRF                                   407.387
  ===> Total WRF-GC                        583.315
 max optd  1.9364301E+31
 max taucldi  1.8318930E-06
 max taucldw  5.6383484E-05
 Switching is not necessary as we are already
 in the right domain!
 GIGC_Chunk_Run: Running for in-PET grid #           1
 GIGC_Chunk_Run: Received new grid IM, JM, LM =          15           9
          49
 =================================================
 W R F - G C   T I M E R S
    Domain           1 (Units: s)
 =================================================
  => Coupler Component                       0.897
   -- Physics & Parameterization             0.232
   -- Diagnostics Out                        0.000
  => GEOS-Chem Column                      176.117
  ===> Total Chemistry                     177.013
  => WRF                                   425.705
  ===> Total WRF-GC                        602.719
 max optd  1.9364301E+31
 max taucldi  1.8378194E-06
 max taucldw  5.6246019E-05
 Switching is not necessary as we are already
 in the right domain!
 GIGC_Chunk_Run: Running for in-PET grid #           1
 GIGC_Chunk_Run: Received new grid IM, JM, LM =          15           9
          49
 =================================================
 W R F - G C   T I M E R S
    Domain           1 (Units: s)
 =================================================
  => Coupler Component                       0.940
   -- Physics & Parameterization             0.242
   -- Diagnostics Out                        0.000
  => GEOS-Chem Column                      177.136
  ===> Total Chemistry                     178.076
  => WRF                                   443.886
  ===> Total WRF-GC                        621.961
 HOURLY EMISSIONS UPDATE TIME     7200.0       0.0
mediation_integrate: med_read_wrf_chem_emissions: Read emissions for time 2018-01-01_02:00:00
 max optd  1.9364301E+31
 max taucldi  1.8454075E-06
 max taucldw  5.6114484E-05
 Switching is not necessary as we are already
 in the right domain!
 GIGC_Chunk_Run: Running for in-PET grid #           1
 GIGC_Chunk_Run: Received new grid IM, JM, LM =          15           9
          49
 =================================================
 W R F - G C   T I M E R S
    Domain           1 (Units: s)
 =================================================
  => Coupler Component                       0.980
   -- Physics & Parameterization             0.252
   -- Diagnostics Out                        0.000
  => GEOS-Chem Column                      178.148
  ===> Total Chemistry                     179.128
  => WRF                                   462.100
  ===> Total WRF-GC                        641.228
 max optd  1.9364301E+31
 max taucldi  1.8935737E-06
 max taucldw  5.6073801E-05
 Switching is not necessary as we are already
 in the right domain!
 GIGC_Chunk_Run: Running for in-PET grid #           1
 GIGC_Chunk_Run: Received new grid IM, JM, LM =          15           9
          49
 =================================================
 W R F - G C   T I M E R S
    Domain           1 (Units: s)
 =================================================
  => Coupler Component                       1.019
   -- Physics & Parameterization             0.262
   -- Diagnostics Out                        0.000
  => GEOS-Chem Column                      179.146
  ===> Total Chemistry                     180.165
  => WRF                                   480.356
  ===> Total WRF-GC                        660.522
 max optd  1.9364301E+31
 max taucldi  1.9195434E-06
 max taucldw  5.5960732E-05
 Switching is not necessary as we are already
 in the right domain!
 GIGC_Chunk_Run: Running for in-PET grid #           1
 GIGC_Chunk_Run: Received new grid IM, JM, LM =          15           9
          49
 =================================================
 W R F - G C   T I M E R S
    Domain           1 (Units: s)
 =================================================
  => Coupler Component                       1.065
   -- Physics & Parameterization             0.272
   -- Diagnostics Out                        0.000
  => GEOS-Chem Column                      180.175
  ===> Total Chemistry                     181.240
  => WRF                                   498.551
  ===> Total WRF-GC                        679.791
 max optd  1.9364301E+31
 max taucldi  1.9146125E-06
 max taucldw  5.5636188E-05
 Switching is not necessary as we are already
 in the right domain!
 GIGC_Chunk_Run: Running for in-PET grid #           1
 GIGC_Chunk_Run: Received new grid IM, JM, LM =          15           9
          49
 =================================================
 W R F - G C   T I M E R S
    Domain           1 (Units: s)
 =================================================
  => Coupler Component                       1.104
   -- Physics & Parameterization             0.282
   -- Diagnostics Out                        0.000
  => GEOS-Chem Column                      181.194
  ===> Total Chemistry                     182.298
  => WRF                                   516.657
  ===> Total WRF-GC                        698.955
 max optd  1.9364301E+31
 max taucldi  1.8986210E-06
 max taucldw  5.5106237E-05
 Switching is not necessary as we are already
 in the right domain!
 GIGC_Chunk_Run: Running for in-PET grid #           1
 GIGC_Chunk_Run: Received new grid IM, JM, LM =          15           9
          49
 =================================================
 W R F - G C   T I M E R S
    Domain           1 (Units: s)
 =================================================
  => Coupler Component                       1.146
   -- Physics & Parameterization             0.292
   -- Diagnostics Out                        0.000
  => GEOS-Chem Column                      182.245
  ===> Total Chemistry                     183.391
  => WRF                                   534.842
  ===> Total WRF-GC                        718.233
 max optd  1.9364301E+31
 max taucldi  1.8901463E-06
 max taucldw  5.4359080E-05
 Switching is not necessary as we are already
 in the right domain!
 GIGC_Chunk_Run: Running for in-PET grid #           1
 GIGC_Chunk_Run: Received new grid IM, JM, LM =          15           9
          49
 =================================================
 W R F - G C   T I M E R S
    Domain           1 (Units: s)
 =================================================
  => Coupler Component                       1.191
   -- Physics & Parameterization             0.302
   -- Diagnostics Out                        0.000
  => GEOS-Chem Column                      183.274
  ===> Total Chemistry                     184.465
  => WRF                                   552.970
  ===> Total WRF-GC                        737.434
 max optd  1.9364301E+31
 max taucldi  1.9012876E-06
 max taucldw  5.3350028E-05
 Switching is not necessary as we are already
 in the right domain!
 GIGC_Chunk_Run: Running for in-PET grid #           1
 GIGC_Chunk_Run: Received new grid IM, JM, LM =          15           9
          49
 =================================================
 W R F - G C   T I M E R S
    Domain           1 (Units: s)
 =================================================
  => Coupler Component                       1.238
   -- Physics & Parameterization             0.312
   -- Diagnostics Out                        0.000
  => GEOS-Chem Column                      184.298
  ===> Total Chemistry                     185.535
  => WRF                                   571.122
  ===> Total WRF-GC                        756.657
 max optd  1.9364301E+31
 max taucldi  1.9315314E-06
 max taucldw  5.2337797E-05
 Switching is not necessary as we are already
 in the right domain!
 GIGC_Chunk_Run: Running for in-PET grid #           1
 GIGC_Chunk_Run: Received new grid IM, JM, LM =          15           9
          49
 =================================================
 W R F - G C   T I M E R S
    Domain           1 (Units: s)
 =================================================
  => Coupler Component                       1.284
   -- Physics & Parameterization             0.322
   -- Diagnostics Out                        0.000
  => GEOS-Chem Column                      185.325
  ===> Total Chemistry                     186.609
  => WRF                                   589.232
  ===> Total WRF-GC                        775.842
 max optd  1.9364301E+31
 max taucldi  1.9722800E-06
 max taucldw  5.1361727E-05
 Switching is not necessary as we are already
 in the right domain!
 GIGC_Chunk_Run: Running for in-PET grid #           1
 GIGC_Chunk_Run: Received new grid IM, JM, LM =          15           9
          49
 =================================================
 W R F - G C   T I M E R S
    Domain           1 (Units: s)
 =================================================
  => Coupler Component                       1.331
   -- Physics & Parameterization             0.333
   -- Diagnostics Out                        0.000
  => GEOS-Chem Column                      186.352
  ===> Total Chemistry                     187.683
  => WRF                                   607.350
  ===> Total WRF-GC                        795.033
 max optd  1.9364301E+31
 max taucldi  2.0152897E-06
 max taucldw  5.0547005E-05
 Switching is not necessary as we are already
 in the right domain!
 GIGC_Chunk_Run: Running for in-PET grid #           1
 GIGC_Chunk_Run: Received new grid IM, JM, LM =          15           9
          49
 =================================================
 W R F - G C   T I M E R S
    Domain           1 (Units: s)
 =================================================
  => Coupler Component                       1.375
   -- Physics & Parameterization             0.344
   -- Diagnostics Out                        0.000
  => GEOS-Chem Column                      187.373
  ===> Total Chemistry                     188.748
  => WRF                                   625.503
  ===> Total WRF-GC                        814.251
 max optd  1.9364301E+31
 max taucldi  2.0572836E-06
 max taucldw  5.0713941E-05
 Switching is not necessary as we are already
 in the right domain!
 GIGC_Chunk_Run: Running for in-PET grid #           1
 GIGC_Chunk_Run: Received new grid IM, JM, LM =          15           9
          49
 =================================================
 W R F - G C   T I M E R S
    Domain           1 (Units: s)
 =================================================
  => Coupler Component                       1.421
   -- Physics & Parameterization             0.354
   -- Diagnostics Out                        0.000
  => GEOS-Chem Column                      188.414
  ===> Total Chemistry                     189.835
  => WRF                                   643.601
  ===> Total WRF-GC                        833.436
 max optd  1.9364301E+31
 max taucldi  2.0982579E-06
 max taucldw  5.0882365E-05
 Switching is not necessary as we are already
 in the right domain!
 GIGC_Chunk_Run: Running for in-PET grid #           1
 GIGC_Chunk_Run: Received new grid IM, JM, LM =          15           9
          49
 =================================================
 W R F - G C   T I M E R S
    Domain           1 (Units: s)
 =================================================
  => Coupler Component                       1.466
   -- Physics & Parameterization             0.365
   -- Diagnostics Out                        0.000
  => GEOS-Chem Column                      189.437
  ===> Total Chemistry                     190.903
  => WRF                                   661.671
  ===> Total WRF-GC                        852.574
 HOURLY EMISSIONS UPDATE TIME    10800.0       0.0
mediation_integrate: med_read_wrf_chem_emissions: Read emissions for time 2018-01-01_03:00:00
 max optd  1.9364301E+31
 max taucldi  2.1372214E-06
 max taucldw  5.1035797E-05
 Switching is not necessary as we are already
 in the right domain!
 GIGC_Chunk_Run: Running for in-PET grid #           1
 GIGC_Chunk_Run: Received new grid IM, JM, LM =          15           9
          49
 =================================================
 W R F - G C   T I M E R S
    Domain           1 (Units: s)
 =================================================
  => Coupler Component                       1.509
   -- Physics & Parameterization             0.375
   -- Diagnostics Out                        0.000
  => GEOS-Chem Column                      190.490
  ===> Total Chemistry                     191.999
  => WRF                                   679.831
  ===> Total WRF-GC                        871.830
 max optd  1.9364301E+31
 max taucldi  2.1739188E-06
 max taucldw  5.1689385E-05
 Switching is not necessary as we are already
 in the right domain!
 GIGC_Chunk_Run: Running for in-PET grid #           1
 GIGC_Chunk_Run: Received new grid IM, JM, LM =          15           9
          49
 =================================================
 W R F - G C   T I M E R S
    Domain           1 (Units: s)
 =================================================
  => Coupler Component                       1.546
   -- Physics & Parameterization             0.385
   -- Diagnostics Out                        0.000
  => GEOS-Chem Column                      191.494
  ===> Total Chemistry                     193.040
  => WRF                                   697.898
  ===> Total WRF-GC                        890.938
 max optd  1.9364301E+31
 max taucldi  2.2093643E-06
 max taucldw  5.2588799E-05
 Switching is not necessary as we are already
 in the right domain!
 GIGC_Chunk_Run: Running for in-PET grid #           1
 GIGC_Chunk_Run: Received new grid IM, JM, LM =          15           9
          49
 =================================================
 W R F - G C   T I M E R S
    Domain           1 (Units: s)
 =================================================
  => Coupler Component                       1.590
   -- Physics & Parameterization             0.395
   -- Diagnostics Out                        0.000
  => GEOS-Chem Column                      192.519
  ===> Total Chemistry                     194.109
  => WRF                                   716.067
  ===> Total WRF-GC                        910.176
 max optd  1.9364301E+31
 max taucldi  2.2459471E-06
 max taucldw  5.3514996E-05
 Switching is not necessary as we are already
 in the right domain!
 GIGC_Chunk_Run: Running for in-PET grid #           1
 GIGC_Chunk_Run: Received new grid IM, JM, LM =          15           9
          49
 =================================================
 W R F - G C   T I M E R S
    Domain           1 (Units: s)
 =================================================
  => Coupler Component                       1.629
   -- Physics & Parameterization             0.405
   -- Diagnostics Out                        0.000
  => GEOS-Chem Column                      193.525
  ===> Total Chemistry                     195.154
  => WRF                                   734.160
  ===> Total WRF-GC                        929.314
 max optd  1.9364301E+31
 max taucldi  2.2841007E-06
 max taucldw  5.4406628E-05
 Switching is not necessary as we are already
 in the right domain!
 GIGC_Chunk_Run: Running for in-PET grid #           1
 GIGC_Chunk_Run: Received new grid IM, JM, LM =          15           9
          49
 =================================================
 W R F - G C   T I M E R S
    Domain           1 (Units: s)
 =================================================
  => Coupler Component                       1.673
   -- Physics & Parameterization             0.415
   -- Diagnostics Out                        0.000
  => GEOS-Chem Column                      194.551
  ===> Total Chemistry                     196.223
  => WRF                                   752.278
  ===> Total WRF-GC                        948.502
 max optd  1.9364301E+31
 max taucldi  2.3211828E-06
 max taucldw  5.5227683E-05
 Switching is not necessary as we are already
 in the right domain!
 GIGC_Chunk_Run: Running for in-PET grid #           1
 GIGC_Chunk_Run: Received new grid IM, JM, LM =          15           9
          49
 =================================================
 W R F - G C   T I M E R S
    Domain           1 (Units: s)
 =================================================
  => Coupler Component                       1.717
   -- Physics & Parameterization             0.426
   -- Diagnostics Out                        0.000
  => GEOS-Chem Column                      195.573
  ===> Total Chemistry                     197.291
  => WRF                                   770.640
  ===> Total WRF-GC                        967.931
 max optd  1.9364301E+31
 max taucldi  2.3527034E-06
 max taucldw  5.6005909E-05
 Switching is not necessary as we are already
 in the right domain!
 GIGC_Chunk_Run: Running for in-PET grid #           1
 GIGC_Chunk_Run: Received new grid IM, JM, LM =          15           9
          49
 =================================================
 W R F - G C   T I M E R S
    Domain           1 (Units: s)
 =================================================
  => Coupler Component                       1.760
   -- Physics & Parameterization             0.437
   -- Diagnostics Out                        0.000
  => GEOS-Chem Column                      196.594
  ===> Total Chemistry                     198.354
  => WRF                                   788.824
  ===> Total WRF-GC                        987.178
 max optd  1.9364301E+31
 max taucldi  2.3868556E-06
 max taucldw  5.6808589E-05
 Switching is not necessary as we are already
 in the right domain!
 GIGC_Chunk_Run: Running for in-PET grid #           1
 GIGC_Chunk_Run: Received new grid IM, JM, LM =          15           9
          49
 =================================================
 W R F - G C   T I M E R S
    Domain           1 (Units: s)
 =================================================
  => Coupler Component                       1.804
   -- Physics & Parameterization             0.448
   -- Diagnostics Out                        0.000
  => GEOS-Chem Column                      197.615
  ===> Total Chemistry                     199.419
  => WRF                                   806.905
  ===> Total WRF-GC                       1006.324
 max optd  1.9364301E+31
 max taucldi  2.4930780E-06
 max taucldw  5.7587800E-05
 Switching is not necessary as we are already
 in the right domain!
 GIGC_Chunk_Run: Running for in-PET grid #           1
 GIGC_Chunk_Run: Received new grid IM, JM, LM =          15           9
          49
 =================================================
 W R F - G C   T I M E R S
    Domain           1 (Units: s)
 =================================================
  => Coupler Component                       1.848
   -- Physics & Parameterization             0.459
   -- Diagnostics Out                        0.000
  => GEOS-Chem Column                      198.634
  ===> Total Chemistry                     200.482
  => WRF                                   825.128
  ===> Total WRF-GC                       1025.610
 max optd  1.9364301E+31
 max taucldi  2.5859192E-06
 max taucldw  5.8096462E-05
 Switching is not necessary as we are already
 in the right domain!
 GIGC_Chunk_Run: Running for in-PET grid #           1
 GIGC_Chunk_Run: Received new grid IM, JM, LM =          15           9
          49
 =================================================
 W R F - G C   T I M E R S
    Domain           1 (Units: s)
 =================================================
  => Coupler Component                       1.891
   -- Physics & Parameterization             0.468
   -- Diagnostics Out                        0.000
  => GEOS-Chem Column                      199.686
  ===> Total Chemistry                     201.577
  => WRF                                   843.310
  ===> Total WRF-GC                       1044.886
 max optd  1.9364301E+31
 max taucldi  2.6811836E-06
 max taucldw  5.8189344E-05
 Switching is not necessary as we are already
 in the right domain!
 GIGC_Chunk_Run: Running for in-PET grid #           1
 GIGC_Chunk_Run: Received new grid IM, JM, LM =          15           9
          49
 =================================================
 W R F - G C   T I M E R S
    Domain           1 (Units: s)
 =================================================
  => Coupler Component                       1.932
   -- Physics & Parameterization             0.479
   -- Diagnostics Out                        0.000
  => GEOS-Chem Column                      200.706
  ===> Total Chemistry                     202.637
  => WRF                                   861.390
  ===> Total WRF-GC                       1064.028
 max optd  1.9364301E+31
 max taucldi  2.7502242E-06
 max taucldw  5.7612677E-05
 Switching is not necessary as we are already
 in the right domain!
 GIGC_Chunk_Run: Running for in-PET grid #           1
 GIGC_Chunk_Run: Received new grid IM, JM, LM =          15           9
          49
 =================================================
 W R F - G C   T I M E R S
    Domain           1 (Units: s)
 =================================================
  => Coupler Component                       1.977
   -- Physics & Parameterization             0.490
   -- Diagnostics Out                        0.000
  => GEOS-Chem Column                      201.726
  ===> Total Chemistry                     203.702
  => WRF                                   879.556
  ===> Total WRF-GC                       1083.258
 HOURLY EMISSIONS UPDATE TIME    14400.0       0.0
mediation_integrate: med_read_wrf_chem_emissions: Read emissions for time 2018-01-01_04:00:00
 max optd  1.9364301E+31
 max taucldi  2.7999217E-06
 max taucldw  5.6925284E-05
 Switching is not necessary as we are already
 in the right domain!
 GIGC_Chunk_Run: Running for in-PET grid #           1
 GIGC_Chunk_Run: Received new grid IM, JM, LM =          15           9
          49
 =================================================
 W R F - G C   T I M E R S
    Domain           1 (Units: s)
 =================================================
  => Coupler Component                       2.020
   -- Physics & Parameterization             0.500
   -- Diagnostics Out                        0.000
  => GEOS-Chem Column                      202.773
  ===> Total Chemistry                     204.793
  => WRF                                   897.735
  ===> Total WRF-GC                       1102.527
 max optd  1.9364301E+31
 max taucldi  2.8361378E-06
 max taucldw  5.6236335E-05
 Switching is not necessary as we are already
 in the right domain!
 GIGC_Chunk_Run: Running for in-PET grid #           1
 GIGC_Chunk_Run: Received new grid IM, JM, LM =          15           9
          49
 =================================================
 W R F - G C   T I M E R S
    Domain           1 (Units: s)
 =================================================
  => Coupler Component                       2.066
   -- Physics & Parameterization             0.511
   -- Diagnostics Out                        0.000
  => GEOS-Chem Column                      203.809
  ===> Total Chemistry                     205.875
  => WRF                                   915.856
  ===> Total WRF-GC                       1121.731
 max optd  1.9364301E+31
 max taucldi  2.8659961E-06
 max taucldw  5.5680688E-05
 Switching is not necessary as we are already
 in the right domain!
 GIGC_Chunk_Run: Running for in-PET grid #           1
 GIGC_Chunk_Run: Received new grid IM, JM, LM =          15           9
          49
 =================================================
 W R F - G C   T I M E R S
    Domain           1 (Units: s)
 =================================================
  => Coupler Component                       2.107
   -- Physics & Parameterization             0.522
   -- Diagnostics Out                        0.000
  => GEOS-Chem Column                      204.824
  ===> Total Chemistry                     206.931
  => WRF                                   934.078
  ===> Total WRF-GC                       1141.009
 max optd  1.9364301E+31
 max taucldi  2.8977995E-06
 max taucldw  5.5366934E-05
 Switching is not necessary as we are already
 in the right domain!
 GIGC_Chunk_Run: Running for in-PET grid #           1
 GIGC_Chunk_Run: Received new grid IM, JM, LM =          15           9
          49
 =================================================
 W R F - G C   T I M E R S
    Domain           1 (Units: s)
 =================================================
  => Coupler Component                       2.152
   -- Physics & Parameterization             0.532
   -- Diagnostics Out                        0.000
  => GEOS-Chem Column                      205.843
  ===> Total Chemistry                     207.996
  => WRF                                   952.243
  ===> Total WRF-GC                       1160.238
 max optd  1.9364301E+31
 max taucldi  2.9393150E-06
 max taucldw  5.5430832E-05
 Switching is not necessary as we are already
 in the right domain!
 GIGC_Chunk_Run: Running for in-PET grid #           1
 GIGC_Chunk_Run: Received new grid IM, JM, LM =          15           9
          49
 =================================================
 W R F - G C   T I M E R S
    Domain           1 (Units: s)
 =================================================
  => Coupler Component                       2.197
   -- Physics & Parameterization             0.542
   -- Diagnostics Out                        0.000
  => GEOS-Chem Column                      206.889
  ===> Total Chemistry                     209.086
  => WRF                                   970.416
  ===> Total WRF-GC                       1179.502
 max optd  1.9364301E+31
 max taucldi  2.9905773E-06
 max taucldw  5.5704484E-05
 Switching is not necessary as we are already
 in the right domain!
 GIGC_Chunk_Run: Running for in-PET grid #           1
 GIGC_Chunk_Run: Received new grid IM, JM, LM =          15           9
          49
 =================================================
 W R F - G C   T I M E R S
    Domain           1 (Units: s)
 =================================================
  => Coupler Component                       2.244
   -- Physics & Parameterization             0.552
   -- Diagnostics Out                        0.000
  => GEOS-Chem Column                      207.912
  ===> Total Chemistry                     210.156
  => WRF                                   988.548
  ===> Total WRF-GC                       1198.704
 max optd  1.9364301E+31
 max taucldi  3.0484593E-06
 max taucldw  5.5975557E-05
 Switching is not necessary as we are already
 in the right domain!
 GIGC_Chunk_Run: Running for in-PET grid #           1
 GIGC_Chunk_Run: Received new grid IM, JM, LM =          15           9
          49
 =================================================
 W R F - G C   T I M E R S
    Domain           1 (Units: s)
 =================================================
  => Coupler Component                       2.284
   -- Physics & Parameterization             0.563
   -- Diagnostics Out                        0.000
  => GEOS-Chem Column                      208.924
  ===> Total Chemistry                     211.208
  => WRF                                  1006.751
  ===> Total WRF-GC                       1217.960
 max optd  1.9364301E+31
 max taucldi  3.1088898E-06
 max taucldw  5.5923119E-05
 Switching is not necessary as we are already
 in the right domain!
 GIGC_Chunk_Run: Running for in-PET grid #           1
 GIGC_Chunk_Run: Received new grid IM, JM, LM =          15           9
          49
 =================================================
 W R F - G C   T I M E R S
    Domain           1 (Units: s)
 =================================================
  => Coupler Component                       2.327
   -- Physics & Parameterization             0.574
   -- Diagnostics Out                        0.000
  => GEOS-Chem Column                      209.947
  ===> Total Chemistry                     212.274
  => WRF                                  1024.905
  ===> Total WRF-GC                       1237.179
 max optd  1.9364301E+31
 max taucldi  3.1747941E-06
 max taucldw  5.5792483E-05
 Switching is not necessary as we are already
 in the right domain!
 GIGC_Chunk_Run: Running for in-PET grid #           1
 GIGC_Chunk_Run: Received new grid IM, JM, LM =          15           9
          49
 =================================================
 W R F - G C   T I M E R S
    Domain           1 (Units: s)
 =================================================
  => Coupler Component                       2.370
   -- Physics & Parameterization             0.584
   -- Diagnostics Out                        0.000
  => GEOS-Chem Column                      210.967
  ===> Total Chemistry                     213.337
  => WRF                                  1043.076
  ===> Total WRF-GC                       1256.413
 max optd  1.9364301E+31
 max taucldi  3.2475796E-06
 max taucldw  5.5511016E-05
 Switching is not necessary as we are already
 in the right domain!
 GIGC_Chunk_Run: Running for in-PET grid #           1
 GIGC_Chunk_Run: Received new grid IM, JM, LM =          15           9
          49
 =================================================
 W R F - G C   T I M E R S
    Domain           1 (Units: s)
 =================================================
  => Coupler Component                       2.412
   -- Physics & Parameterization             0.594
   -- Diagnostics Out                        0.000
  => GEOS-Chem Column                      212.022
  ===> Total Chemistry                     214.434
  => WRF                                  1061.232
  ===> Total WRF-GC                       1275.665
 max optd  1.9364301E+31
 max taucldi  3.3287133E-06
 max taucldw  5.5345910E-05
 Switching is not necessary as we are already
 in the right domain!
 GIGC_Chunk_Run: Running for in-PET grid #           1
 GIGC_Chunk_Run: Received new grid IM, JM, LM =          15           9
          49
 =================================================
 W R F - G C   T I M E R S
    Domain           1 (Units: s)
 =================================================
  => Coupler Component                       2.457
   -- Physics & Parameterization             0.605
   -- Diagnostics Out                        0.000
  => GEOS-Chem Column                      213.044
  ===> Total Chemistry                     215.501
  => WRF                                  1079.310
  ===> Total WRF-GC                       1294.812
 max optd  1.9364301E+31
 max taucldi  3.4355714E-06
 max taucldw  5.5348402E-05
 Switching is not necessary as we are already
 in the right domain!
 GIGC_Chunk_Run: Running for in-PET grid #           1
 GIGC_Chunk_Run: Received new grid IM, JM, LM =          15           9
          49
 =================================================
 W R F - G C   T I M E R S
    Domain           1 (Units: s)
 =================================================
  => Coupler Component                       2.505
   -- Physics & Parameterization             0.615
   -- Diagnostics Out                        0.000
  => GEOS-Chem Column                      214.077
  ===> Total Chemistry                     216.582
  => WRF                                  1097.393
  ===> Total WRF-GC                       1313.975
 HOURLY EMISSIONS UPDATE TIME    18000.0       0.0
mediation_integrate: med_read_wrf_chem_emissions: Read emissions for time 2018-01-01_05:00:00
 max optd  1.9364301E+31
 max taucldi  3.5855232E-06
 max taucldw  5.5564091E-05
 Switching is not necessary as we are already
 in the right domain!
 GIGC_Chunk_Run: Running for in-PET grid #           1
 GIGC_Chunk_Run: Received new grid IM, JM, LM =          15           9
          49
 =================================================
 W R F - G C   T I M E R S
    Domain           1 (Units: s)
 =================================================
  => Coupler Component                       2.551
   -- Physics & Parameterization             0.625
   -- Diagnostics Out                        0.000
  => GEOS-Chem Column                      215.108
  ===> Total Chemistry                     217.659
  => WRF                                  1115.573
  ===> Total WRF-GC                       1333.232
 max optd  1.9364301E+31
 max taucldi  3.7520153E-06
 max taucldw  5.6053559E-05
 Switching is not necessary as we are already
 in the right domain!
 GIGC_Chunk_Run: Running for in-PET grid #           1
 GIGC_Chunk_Run: Received new grid IM, JM, LM =          15           9
          49
 =================================================
 W R F - G C   T I M E R S
    Domain           1 (Units: s)
 =================================================
  => Coupler Component                       2.597
   -- Physics & Parameterization             0.635
   -- Diagnostics Out                        0.000
  => GEOS-Chem Column                      216.148
  ===> Total Chemistry                     218.745
  => WRF                                  1133.691
  ===> Total WRF-GC                       1352.436
 max optd  1.9364301E+31
 max taucldi  3.9269353E-06
 max taucldw  5.6719542E-05
 Switching is not necessary as we are already
 in the right domain!
 GIGC_Chunk_Run: Running for in-PET grid #           1
 GIGC_Chunk_Run: Received new grid IM, JM, LM =          15           9
          49
 =================================================
 W R F - G C   T I M E R S
    Domain           1 (Units: s)
 =================================================
  => Coupler Component                       2.638
   -- Physics & Parameterization             0.645
   -- Diagnostics Out                        0.000
  => GEOS-Chem Column                      217.169
  ===> Total Chemistry                     219.808
  => WRF                                  1151.782
  ===> Total WRF-GC                       1371.590
 max optd  1.9364301E+31
 max taucldi  4.1023627E-06
 max taucldw  5.7457230E-05
 Switching is not necessary as we are already
 in the right domain!
 GIGC_Chunk_Run: Running for in-PET grid #           1
 GIGC_Chunk_Run: Received new grid IM, JM, LM =          15           9
          49
 =================================================
 W R F - G C   T I M E R S
    Domain           1 (Units: s)
 =================================================
  => Coupler Component                       2.687
   -- Physics & Parameterization             0.655
   -- Diagnostics Out                        0.000
  => GEOS-Chem Column                      218.200
  ===> Total Chemistry                     220.887
  => WRF                                  1169.957
  ===> Total WRF-GC                       1390.843
 max optd  1.9364301E+31
 max taucldi  4.2728057E-06
 max taucldw  5.8219732E-05
 Switching is not necessary as we are already
 in the right domain!
 GIGC_Chunk_Run: Running for in-PET grid #           1
 GIGC_Chunk_Run: Received new grid IM, JM, LM =          15           9
          49
 =================================================
 W R F - G C   T I M E R S
    Domain           1 (Units: s)
 =================================================
  => Coupler Component                       2.728
   -- Physics & Parameterization             0.665
   -- Diagnostics Out                        0.000
  => GEOS-Chem Column                      219.199
  ===> Total Chemistry                     221.927
  => WRF                                  1188.126
  ===> Total WRF-GC                       1410.053
 max optd  1.9364301E+31
 max taucldi  4.4367321E-06
 max taucldw  5.8941943E-05
 Switching is not necessary as we are already
 in the right domain!
 GIGC_Chunk_Run: Running for in-PET grid #           1
 GIGC_Chunk_Run: Received new grid IM, JM, LM =          15           9
          49
 =================================================
 W R F - G C   T I M E R S
    Domain           1 (Units: s)
 =================================================
  => Coupler Component                       2.773
   -- Physics & Parameterization             0.674
   -- Diagnostics Out                        0.000
  => GEOS-Chem Column                      220.231
  ===> Total Chemistry                     223.004
  => WRF                                  1206.306
  ===> Total WRF-GC                       1429.310
 max optd  1.9364301E+31
 max taucldi  4.5954212E-06
 max taucldw  5.9609079E-05
 Switching is not necessary as we are already
 in the right domain!
 GIGC_Chunk_Run: Running for in-PET grid #           1
 GIGC_Chunk_Run: Received new grid IM, JM, LM =          15           9
          49
 =================================================
 W R F - G C   T I M E R S
    Domain           1 (Units: s)
 =================================================
  => Coupler Component                       2.818
   -- Physics & Parameterization             0.685
   -- Diagnostics Out                        0.000
  => GEOS-Chem Column                      221.245
  ===> Total Chemistry                     224.063
  => WRF                                  1224.478
  ===> Total WRF-GC                       1448.540
 max optd  1.9364301E+31
 max taucldi  4.7489716E-06
 max taucldw  6.0221642E-05
 Switching is not necessary as we are already
 in the right domain!
 GIGC_Chunk_Run: Running for in-PET grid #           1
 GIGC_Chunk_Run: Received new grid IM, JM, LM =          15           9
          49
 =================================================
 W R F - G C   T I M E R S
    Domain           1 (Units: s)
 =================================================
  => Coupler Component                       2.864
   -- Physics & Parameterization             0.695
   -- Diagnostics Out                        0.000
  => GEOS-Chem Column                      222.287
  ===> Total Chemistry                     225.150
  => WRF                                  1242.638
  ===> Total WRF-GC                       1467.789
 max optd  1.9364301E+31
 max taucldi  4.8962652E-06
 max taucldw  6.0791503E-05
 Switching is not necessary as we are already
 in the right domain!
 GIGC_Chunk_Run: Running for in-PET grid #           1
 GIGC_Chunk_Run: Received new grid IM, JM, LM =          15           9
          49
 =================================================
 W R F - G C   T I M E R S
    Domain           1 (Units: s)
 =================================================
  => Coupler Component                       2.908
   -- Physics & Parameterization             0.706
   -- Diagnostics Out                        0.000
  => GEOS-Chem Column                      223.309
  ===> Total Chemistry                     226.217
  => WRF                                  1260.800
  ===> Total WRF-GC                       1487.017
 max optd  1.9364301E+31
 max taucldi  5.0371564E-06
 max taucldw  6.1361767E-05
 Switching is not necessary as we are already
 in the right domain!
 GIGC_Chunk_Run: Running for in-PET grid #           1
 GIGC_Chunk_Run: Received new grid IM, JM, LM =          15           9
          49
 =================================================
 W R F - G C   T I M E R S
    Domain           1 (Units: s)
 =================================================
  => Coupler Component                       2.950
   -- Physics & Parameterization             0.716
   -- Diagnostics Out                        0.000
  => GEOS-Chem Column                      224.365
  ===> Total Chemistry                     227.315
  => WRF                                  1279.235
  ===> Total WRF-GC                       1506.550
 max optd  1.9364301E+31
 max taucldi  5.1751754E-06
 max taucldw  6.2044543E-05
 Switching is not necessary as we are already
 in the right domain!
 GIGC_Chunk_Run: Running for in-PET grid #           1
 GIGC_Chunk_Run: Received new grid IM, JM, LM =          15           9
          49
 =================================================
 W R F - G C   T I M E R S
    Domain           1 (Units: s)
 =================================================
  => Coupler Component                       2.994
   -- Physics & Parameterization             0.727
   -- Diagnostics Out                        0.000
  => GEOS-Chem Column                      225.405
  ===> Total Chemistry                     228.399
  => WRF                                  1297.353
  ===> Total WRF-GC                       1525.752
 max optd  1.9364301E+31
 max taucldi  5.3121294E-06
 max taucldw  6.2914049E-05
 Switching is not necessary as we are already
 in the right domain!
 GIGC_Chunk_Run: Running for in-PET grid #           1
 GIGC_Chunk_Run: Received new grid IM, JM, LM =          15           9
          49
 =================================================
 W R F - G C   T I M E R S
    Domain           1 (Units: s)
 =================================================
  => Coupler Component                       3.034
   -- Physics & Parameterization             0.736
   -- Diagnostics Out                        0.000
  => GEOS-Chem Column                      226.426
  ===> Total Chemistry                     229.461
  => WRF                                  1315.477
  ===> Total WRF-GC                       1544.938
 HOURLY EMISSIONS UPDATE TIME    21600.0       0.0
mediation_integrate: med_read_wrf_chem_emissions: Read emissions for time 2018-01-01_06:00:00
 max optd  1.9364301E+31
 max taucldi  5.4472835E-06
 max taucldw  6.3946536E-05
 Switching is not necessary as we are already
 in the right domain!
 GIGC_Chunk_Run: Running for in-PET grid #           1
 GIGC_Chunk_Run: Received new grid IM, JM, LM =          15           9
          49
 =================================================
 W R F - G C   T I M E R S
    Domain           1 (Units: s)
 =================================================
  => Coupler Component                       3.075
   -- Physics & Parameterization             0.746
   -- Diagnostics Out                        0.000
  => GEOS-Chem Column                      227.497
  ===> Total Chemistry                     230.572
  => WRF                                  1774.186
  ===> Total WRF-GC                       2004.759
 max optd  1.9364301E+31
 max taucldi  5.5766482E-06
 max taucldw  6.5054359E-05
 Switching is not necessary as we are already
 in the right domain!
 GIGC_Chunk_Run: Running for in-PET grid #           1
 GIGC_Chunk_Run: Received new grid IM, JM, LM =          15           9
          49
 =================================================
 W R F - G C   T I M E R S
    Domain           1 (Units: s)
 =================================================
  => Coupler Component                       3.122
   -- Physics & Parameterization             0.757
   -- Diagnostics Out                        0.000
  => GEOS-Chem Column                      228.520
  ===> Total Chemistry                     231.642
  => WRF                                  1792.288
  ===> Total WRF-GC                       2023.930
 max optd  1.9364301E+31
 max taucldi  5.7158486E-06
 max taucldw  6.6031120E-05
 Switching is not necessary as we are already
 in the right domain!
 GIGC_Chunk_Run: Running for in-PET grid #           1
 GIGC_Chunk_Run: Received new grid IM, JM, LM =          15           9
          49
 =================================================
 W R F - G C   T I M E R S
    Domain           1 (Units: s)
 =================================================
  => Coupler Component                       3.164
   -- Physics & Parameterization             0.767
   -- Diagnostics Out                        0.000
  => GEOS-Chem Column                      229.584
  ===> Total Chemistry                     232.748
  => WRF                                  1810.595
  ===> Total WRF-GC                       2043.343
 max optd  1.9364301E+31
 max taucldi  5.8468586E-06
 max taucldw  6.6701054E-05
 Switching is not necessary as we are already
 in the right domain!
 GIGC_Chunk_Run: Running for in-PET grid #           1
 GIGC_Chunk_Run: Received new grid IM, JM, LM =          15           9
          49
 =================================================
 W R F - G C   T I M E R S
    Domain           1 (Units: s)
 =================================================
  => Coupler Component                       3.209
[...]
  => GEOS-Chem Column                      277.170
  ===> Total Chemistry                     282.279
  => WRF                                  2628.213
  ===> Total WRF-GC                       2910.491
 HOURLY EMISSIONS UPDATE TIME    36000.0       0.0
mediation_integrate: med_read_wrf_chem_emissions: Read emissions for time 2018-01-01_10:00:00
 max optd  1.9364301E+31
 max taucldi  9.3742177E-02
 max taucldw  7.1480616E-05
 Switching is not necessary as we are already
 in the right domain!
 GIGC_Chunk_Run: Running for in-PET grid #           1
 GIGC_Chunk_Run: Received new grid IM, JM, LM =          15           9
          49
 =================================================
 W R F - G C   T I M E R S
    Domain           1 (Units: s)
 =================================================
  => Coupler Component                       5.158
   -- Physics & Parameterization             1.243
   -- Diagnostics Out                        0.000
  => GEOS-Chem Column                      278.219
  ===> Total Chemistry                     283.377
  => WRF                                  2646.415
  ===> Total WRF-GC                       2929.792
 max optd  1.9364301E+31
 max taucldi  0.1081508    
 max taucldw  7.1713766E-05
 Switching is not necessary as we are already
 in the right domain!
 GIGC_Chunk_Run: Running for in-PET grid #           1
 GIGC_Chunk_Run: Received new grid IM, JM, LM =          15           9
          49
 =================================================
 W R F - G C   T I M E R S
    Domain           1 (Units: s)
 =================================================
  => Coupler Component                       5.196
   -- Physics & Parameterization             1.254
   -- Diagnostics Out                        0.000
  => GEOS-Chem Column                      279.299
  ===> Total Chemistry                     284.495
  => WRF                                  2664.569
  ===> Total WRF-GC                       2949.064
 max optd  1.9364301E+31
 max taucldi  0.1153524    
 max taucldw  7.2055547E-05
 Switching is not necessary as we are already
 in the right domain!
 GIGC_Chunk_Run: Running for in-PET grid #           1
 GIGC_Chunk_Run: Received new grid IM, JM, LM =          15           9
          49
 =================================================
 W R F - G C   T I M E R S
    Domain           1 (Units: s)
 =================================================
  => Coupler Component                       5.234
   -- Physics & Parameterization             1.264
   -- Diagnostics Out                        0.000
  => GEOS-Chem Column                      280.373
  ===> Total Chemistry                     285.607
  => WRF                                  2682.680
  ===> Total WRF-GC                       2968.286
 max optd  1.9364301E+31
 max taucldi  0.1119971    
 max taucldw  7.2535338E-05
 Switching is not necessary as we are already
 in the right domain!
 GIGC_Chunk_Run: Running for in-PET grid #           1
 GIGC_Chunk_Run: Received new grid IM, JM, LM =          15           9
          49
 =================================================
 W R F - G C   T I M E R S
    Domain           1 (Units: s)
 =================================================
  => Coupler Component                       5.274
   -- Physics & Parameterization             1.274
   -- Diagnostics Out                        0.000
  => GEOS-Chem Column                      281.451
  ===> Total Chemistry                     286.725
  => WRF                                  2700.896
  ===> Total WRF-GC                       2987.621
 max optd  1.9364301E+31
 max taucldi  0.1123115    
 max taucldw  7.3111863E-05
 Switching is not necessary as we are already
 in the right domain!
 GIGC_Chunk_Run: Running for in-PET grid #           1
 GIGC_Chunk_Run: Received new grid IM, JM, LM =          15           9
          49
 =================================================
 W R F - G C   T I M E R S
    Domain           1 (Units: s)
 =================================================
  => Coupler Component                       5.309
   -- Physics & Parameterization             1.285
   -- Diagnostics Out                        0.000
  => GEOS-Chem Column                      282.528
  ===> Total Chemistry                     287.837
  => WRF                                  2719.060
  ===> Total WRF-GC                       3006.897
 max optd  1.9364301E+31
 max taucldi  0.1174366    
 max taucldw  7.3773408E-05
 Switching is not necessary as we are already
 in the right domain!
 GIGC_Chunk_Run: Running for in-PET grid #           1
 GIGC_Chunk_Run: Received new grid IM, JM, LM =          15           9
          49
 =================================================
 W R F - G C   T I M E R S
    Domain           1 (Units: s)
 =================================================
  => Coupler Component                       5.361
   -- Physics & Parameterization             1.295
   -- Diagnostics Out                        0.000
  => GEOS-Chem Column                      283.571
  ===> Total Chemistry                     288.932
  => WRF                                  2737.114
  ===> Total WRF-GC                       3026.046
 max optd  1.9364301E+31
 max taucldi  0.1462102    
 max taucldw  7.4430245E-05
 Switching is not necessary as we are already
 in the right domain!
 GIGC_Chunk_Run: Running for in-PET grid #           1
 GIGC_Chunk_Run: Received new grid IM, JM, LM =          15           9
          49
 =================================================
 W R F - G C   T I M E R S
    Domain           1 (Units: s)
 =================================================
  => Coupler Component                       5.400
   -- Physics & Parameterization             1.306
   -- Diagnostics Out                        0.000
  => GEOS-Chem Column                      284.645
  ===> Total Chemistry                     290.044
  => WRF                                  2755.316
  ===> Total WRF-GC                       3045.360
 max optd  1.9364301E+31
 max taucldi  0.1939981    
 max taucldw  7.5006436E-05
 Switching is not necessary as we are already
 in the right domain!
 GIGC_Chunk_Run: Running for in-PET grid #           1
 GIGC_Chunk_Run: Received new grid IM, JM, LM =          15           9
          49
 =================================================
 W R F - G C   T I M E R S
    Domain           1 (Units: s)
 =================================================
  => Coupler Component                       5.436
   -- Physics & Parameterization             1.317
   -- Diagnostics Out                        0.000
  => GEOS-Chem Column                      285.724
  ===> Total Chemistry                     291.159
  => WRF                                  2773.463
  ===> Total WRF-GC                       3064.622
 max optd  1.9364301E+31
 max taucldi  0.2439275    
 max taucldw  7.5472977E-05
 Switching is not necessary as we are already
 in the right domain!
 GIGC_Chunk_Run: Running for in-PET grid #           1
 GIGC_Chunk_Run: Received new grid IM, JM, LM =          15           9
          49
 =================================================
 W R F - G C   T I M E R S
    Domain           1 (Units: s)
 =================================================
  => Coupler Component                       5.491
   -- Physics & Parameterization             1.327
   -- Diagnostics Out                        0.000
  => GEOS-Chem Column                      286.757
  ===> Total Chemistry                     292.248
  => WRF                                  2791.555
  ===> Total WRF-GC                       3083.803
 max optd  1.9364301E+31
 max taucldi  0.3163818    
 max taucldw  7.5828357E-05
 Switching is not necessary as we are already
 in the right domain!
 GIGC_Chunk_Run: Running for in-PET grid #           1
 GIGC_Chunk_Run: Received new grid IM, JM, LM =          15           9
          49
 =================================================
 W R F - G C   T I M E R S
    Domain           1 (Units: s)
 =================================================
  => Coupler Component                       5.527
   -- Physics & Parameterization             1.337
   -- Diagnostics Out                        0.000
  => GEOS-Chem Column                      287.833
  ===> Total Chemistry                     293.361
  => WRF                                  2809.787
  ===> Total WRF-GC                       3103.147
 max optd  1.9364301E+31
 max taucldi  0.4431283    
 max taucldw  7.6095763E-05
 Switching is not necessary as we are already
 in the right domain!
 GIGC_Chunk_Run: Running for in-PET grid #           1
 GIGC_Chunk_Run: Received new grid IM, JM, LM =          15           9
          49
 =================================================
 W R F - G C   T I M E R S
    Domain           1 (Units: s)
 =================================================
  => Coupler Component                       5.574
   -- Physics & Parameterization             1.348
   -- Diagnostics Out                        0.000
  => GEOS-Chem Column                      288.897
  ===> Total Chemistry                     294.471
  => WRF                                  2827.897
  ===> Total WRF-GC                       3122.368
 max optd  1.9364301E+31
 max taucldi  0.5870610    
 max taucldw  7.6380900E-05
 Switching is not necessary as we are already
 in the right domain!
 GIGC_Chunk_Run: Running for in-PET grid #           1
 GIGC_Chunk_Run: Received new grid IM, JM, LM =          15           9
          49
 =================================================
 W R F - G C   T I M E R S
    Domain           1 (Units: s)
 =================================================
  => Coupler Component                       5.610
   -- Physics & Parameterization             1.358
   -- Diagnostics Out                        0.000
  => GEOS-Chem Column                      289.970
  ===> Total Chemistry                     295.579
  => WRF                                  2846.095
  ===> Total WRF-GC                       3141.675
 HOURLY EMISSIONS UPDATE TIME    39600.0       0.0
mediation_integrate: med_read_wrf_chem_emissions: Read emissions for time 2018-01-01_11:00:00
 max optd  1.9364301E+31
 max taucldi  0.6525536    
 max taucldw  7.6752971E-05
 Switching is not necessary as we are already
 in the right domain!
 GIGC_Chunk_Run: Running for in-PET grid #           1
 GIGC_Chunk_Run: Received new grid IM, JM, LM =          15           9
          49
 =================================================
 W R F - G C   T I M E R S
    Domain           1 (Units: s)
 =================================================
  => Coupler Component                       5.647
   -- Physics & Parameterization             1.368
   -- Diagnostics Out                        0.000
  => GEOS-Chem Column                      291.043
  ===> Total Chemistry                     296.689
  => WRF                                  2864.260
  ===> Total WRF-GC                       3160.949
 max optd  1.9364301E+31
 max taucldi  0.6394683    
 max taucldw  7.7137083E-05
 Switching is not necessary as we are already
 in the right domain!
 GIGC_Chunk_Run: Running for in-PET grid #           1
 GIGC_Chunk_Run: Received new grid IM, JM, LM =          15           9
          49
 =================================================
 W R F - G C   T I M E R S
    Domain           1 (Units: s)
 =================================================
  => Coupler Component                       5.685
   -- Physics & Parameterization             1.379
   -- Diagnostics Out                        0.000
  => GEOS-Chem Column                      292.123
  ===> Total Chemistry                     297.809
  => WRF                                  2882.375
  ===> Total WRF-GC                       3180.183
 max optd  1.9364301E+31
 max taucldi  0.6295830    
 max taucldw  7.7521589E-05
 Switching is not necessary as we are already
 in the right domain!
 GIGC_Chunk_Run: Running for in-PET grid #           1
 GIGC_Chunk_Run: Received new grid IM, JM, LM =          15           9
          49
 =================================================
 W R F - G C   T I M E R S
    Domain           1 (Units: s)
 =================================================
  => Coupler Component                       5.721
   -- Physics & Parameterization             1.389
   -- Diagnostics Out                        0.000
  => GEOS-Chem Column                      293.203
  ===> Total Chemistry                     298.924
  => WRF                                  2900.577
  ===> Total WRF-GC                       3199.501
 max optd  1.9364301E+31
 max taucldi  0.6202351    
 max taucldw  7.7856472E-05
 Switching is not necessary as we are already
 in the right domain!
 GIGC_Chunk_Run: Running for in-PET grid #           1
 GIGC_Chunk_Run: Received new grid IM, JM, LM =          15           9
          49
 =================================================
 W R F - G C   T I M E R S
    Domain           1 (Units: s)
 =================================================
  => Coupler Component                       5.757
   -- Physics & Parameterization             1.399
   -- Diagnostics Out                        0.000
  => GEOS-Chem Column                      294.287
  ===> Total Chemistry                     300.043
  => WRF                                  2918.830
  ===> Total WRF-GC                       3218.873
 max optd  1.9364301E+31
 max taucldi  0.6066340    
 max taucldw  7.8072509E-05
 Switching is not necessary as we are already
 in the right domain!
 GIGC_Chunk_Run: Running for in-PET grid #           1
 GIGC_Chunk_Run: Received new grid IM, JM, LM =          15           9
          49
 =================================================
 W R F - G C   T I M E R S
    Domain           1 (Units: s)
 =================================================
  => Coupler Component                       5.792
   -- Physics & Parameterization             1.410
   -- Diagnostics Out                        0.000
  => GEOS-Chem Column                      295.368
  ===> Total Chemistry                     301.160
  => WRF                                  2937.224
  ===> Total WRF-GC                       3238.384
 max optd  1.9364301E+31
 max taucldi  0.5929332    
 max taucldw  7.8216734E-05
 Switching is not necessary as we are already
 in the right domain!
 GIGC_Chunk_Run: Running for in-PET grid #           1
 GIGC_Chunk_Run: Received new grid IM, JM, LM =          15           9
          49
 =================================================
 W R F - G C   T I M E R S
    Domain           1 (Units: s)
 =================================================
  => Coupler Component                       5.831
   -- Physics & Parameterization             1.420
   -- Diagnostics Out                        0.000
  => GEOS-Chem Column                      296.445
  ===> Total Chemistry                     302.276
  => WRF                                  2955.593
  ===> Total WRF-GC                       3257.869
 max optd  1.9364301E+31
 max taucldi  0.5786630    
 max taucldw  7.8307356E-05
 Switching is not necessary as we are already
 in the right domain!
 GIGC_Chunk_Run: Running for in-PET grid #           1
 GIGC_Chunk_Run: Received new grid IM, JM, LM =          15           9
          49
 =================================================
 W R F - G C   T I M E R S
    Domain           1 (Units: s)
 =================================================
  => Coupler Component                       5.865
   -- Physics & Parameterization             1.431
   -- Diagnostics Out                        0.000
  => GEOS-Chem Column                      297.518
  ===> Total Chemistry                     303.383
  => WRF                                  2974.105
  ===> Total WRF-GC                       3277.488
 max optd  1.9364301E+31
 max taucldi  0.5641180    
 max taucldw  7.8190162E-05
 Switching is not necessary as we are already
 in the right domain!
 GIGC_Chunk_Run: Running for in-PET grid #           1
 GIGC_Chunk_Run: Received new grid IM, JM, LM =          15           9
          49
 =================================================
 W R F - G C   T I M E R S
    Domain           1 (Units: s)
 =================================================
  => Coupler Component                       5.900
   -- Physics & Parameterization             1.442
   -- Diagnostics Out                        0.000
  => GEOS-Chem Column                      298.597
  ===> Total Chemistry                     304.497
  => WRF                                  2992.679
  ===> Total WRF-GC                       3297.176
 max optd  1.9364301E+31
 max taucldi  0.5611125    
 max taucldw  7.8181336E-05
 Switching is not necessary as we are already
 in the right domain!
 GIGC_Chunk_Run: Running for in-PET grid #           1
 GIGC_Chunk_Run: Received new grid IM, JM, LM =          15           9
          49
 =================================================
 W R F - G C   T I M E R S
    Domain           1 (Units: s)
 =================================================
  => Coupler Component                       5.935
   -- Physics & Parameterization             1.452
   -- Diagnostics Out                        0.000
  => GEOS-Chem Column                      299.683
  ===> Total Chemistry                     305.618
  => WRF                                  3011.316
  ===> Total WRF-GC                       3316.934
 max optd  1.9364301E+31
 max taucldi  0.5716205    
 max taucldw  7.7939018E-05
 Switching is not necessary as we are already
 in the right domain!
 GIGC_Chunk_Run: Running for in-PET grid #           1
 GIGC_Chunk_Run: Received new grid IM, JM, LM =          15           9
          49
 =================================================
 W R F - G C   T I M E R S
    Domain           1 (Units: s)
 =================================================
  => Coupler Component                       5.970
   -- Physics & Parameterization             1.462
   -- Diagnostics Out                        0.000
  => GEOS-Chem Column                      300.762
  ===> Total Chemistry                     306.732
  => WRF                                  3030.202
  ===> Total WRF-GC                       3336.934
 max optd  1.9364301E+31
 max taucldi  0.5770196    
 max taucldw  7.7738820E-05
 Switching is not necessary as we are already
 in the right domain!
 GIGC_Chunk_Run: Running for in-PET grid #           1
 GIGC_Chunk_Run: Received new grid IM, JM, LM =          15           9
          49
 =================================================
 W R F - G C   T I M E R S
    Domain           1 (Units: s)
 =================================================
  => Coupler Component                       6.017
   -- Physics & Parameterization             1.473
   -- Diagnostics Out                        0.000
  => GEOS-Chem Column                      301.812
  ===> Total Chemistry                     307.829
  => WRF                                  3048.960
  ===> Total WRF-GC                       3356.789
 max optd  1.9364301E+31
 max taucldi  0.5707570    
 max taucldw  7.7680663E-05
 Switching is not necessary as we are already
 in the right domain!
 GIGC_Chunk_Run: Running for in-PET grid #           1
 GIGC_Chunk_Run: Received new grid IM, JM, LM =          15           9
          49
 =================================================
 W R F - G C   T I M E R S
    Domain           1 (Units: s)
 =================================================
  => Coupler Component                       6.046
   -- Physics & Parameterization             1.483
   -- Diagnostics Out                        0.000
  => GEOS-Chem Column                      302.900
  ===> Total Chemistry                     308.947
  => WRF                                  3067.719
  ===> Total WRF-GC                       3376.666
d01 2018-01-01_12:00:00 wrf: SUCCESS COMPLETE WRF
