taskid: 93 hostname: ip-172-31-0-178
Quilting with   1 groups of   0 I/O tasks.
 Ntasks in X           64 , ntasks in Y           72
--- WARNING: traj_opt is zero, but num_traj is not zero; setting num_traj to zero.
--- NOTE: sst_update is 0, setting io_form_auxinput4 = 0 and auxinput4_interval = 0 for all domains
--- NOTE: grid_fdda is 0 for domain      1, setting gfdda interval and ending time to 0 for that domain.
--- NOTE: both grid_sfdda and pxlsm_soil_nudge are 0 for domain      1, setting sgfdda interval and ending time to 0 for that domain.
--- NOTE: obs_nudge_opt is 0 for domain      1, setting obs nudging interval and ending time to 0 for that domain.
--- NOTE: bl_pbl_physics /= 4, implies mfshconv must be 0, resetting
Need MYNN PBL for icloud_bl = 1, resetting to 0
*************************************
No physics suite selected.
Physics options will be used directly from the namelist.
*************************************
--- NOTE: RRTMG radiation is in use, setting:  levsiz=59, alevsiz=12, no_src_types=6
--- NOTE: num_soil_layers has been set to      4
WRF V3.9.1.1 MODEL
 *************************************
 Parent domain
 ids,ide,jds,jde            1         950           1         650
 ims,ime,jms,jme          427         454           4          26
 ips,ipe,jps,jpe          434         447          11          19
 *************************************
DYNAMICS OPTION: Eulerian Mass Coordinate
   alloc_space_field: domain            1 ,              197508740  bytes allocated
  med_initialdata_input: calling input_input
Max map factor in domain 1 =  1.40. Scale the dt in the model accordingly.
INPUT LandUse = "USGS"
 LANDUSE TYPE = "USGS" FOUND          33  CATEGORIES           2  SEASONS WATER CATEGORY =           16  SNOW CATEGORY =           24
INITIALIZE THREE Noah LSM RELATED TABLES
*****************************************************************
  __          _______  ______       _____  _____ _    _ _____
  \ \        / /  __ \|  ____|     / ____|/ ____| |  | |  __ \
   \ \  /\  / /| |__) | |__ ______| |  __| |    | |__| | |__) |
    \ \/  \/ / |  _  /|  __|______| | |_ | |    |  __  |  ___/
     \  /\  /  | | \ \| |         | |__| | |____| |  | | |
      \/  \/   |_|  \_\_|          \_____|\_____|_|  |_|_|
*****************************************************************
         WRF-GC MODEL, VERSION 1811.11 - WRF BINDINGS
 For errors, suggestions & feedback email linhaipeng@pku.edu.cn
*****************************************************************
    This is domain            1
 ### GIGC_Stateful_Mod: Root CPU, after READ_INPUT_FILE
  Linoz Data:  O3 climatology :                  z*=10, 12, ..., 58                             2.700E-08 1.083E-05
  Linoz Data:  Temperature climatology :         z*=10, 12, ..., 58                             1.859E+02 2.904E+02
  Linoz Data:  Column O3 above box climalology : z*=10, 12, ..., 58                             7.538E-02 3.770E+02
  Linoz Data:  P-L O3 climatology (mr/s):        z*=10, 12, ..., 58                            -1.590E-10 2.835E-11
  Linoz Data:  d(P-L)/dO3 (1/s) :                z*=10, 12, ..., 58                            -8.386E-04 7.556E-09
  Linoz Data:  d(P-L)/dT (mr/K) :                z*=10, 12, ..., 58                            -5.742E-12 4.615E-14
  Linoz Data:  d(P-L)/d(column O3) (mr/DU) :     z*=10, 12, ..., 58                            -1.921E-12 5.038E-10
 ### GIGC_Stateful_Mod: Root CPU, after LINOZ_READ
 %%%%%%%%% GIGC IN-PET GRID SWITCHING HACKS %%%%%%%%%
     (Not very) Proudly brought to you by hplin      
 Some debug information:
 ID:           1
 IM, JM, LM:          14           9          49  will be set as PAR
 Allocs: CMN T GC F
 RC at entry-point:           0
 %%%%%%%%%%%%%%%%%%%%%%%%%%%%%%%%%%%%%%%%%%%%%%%%%%%%
 No need to switch HcoState for ID           1
 Exit RC:            0
 %%%%%%%%%    FINISHED GIGC_Switch_Dims    %%%%%%%%%
 GIGC_Chunk_Init: Received new grid IM, JM, LM =          14           9
          49
     ### GIGC_INIT_SIMULATION: after Input_Opt% setups
     ### GIGC_INIT_SIMULATION: after GC_Init_All
     ### GIGC_INIT_SIMULATION: after GC_Init_Extra
     ### GIGC_INIT_SIMULATION: after INIT_FJX
 # GIGC_CHUNK_MOD: after SV save, ID =           1
 WRFGC chemics_init: Following information regarding Input_Opt% (for all doms)
 After domain           1
 HPC:  T
 LPRT:  F
 DoConv:  T
 DoDryDep:  T
 DoEmis:  T
 DoChem:  T
 DoTurb:  T
 DoWetDep:  T

 tropopause_init: DONE intialized domain            1

 mediation_integrate: med_read_wrf_chem_emissions: Open file wrfchemi_00z_d01
 HOURLY EMISSIONS UPDATE TIME        0.0       0.0
mediation_integrate: med_read_wrf_chem_emissions: Read emissions for time 2018-01-01_00:00:00
open_aux_u : error opening wrffirechemi_d01_2018-01-01_00:00:00 for reading. 100
open_aux_u : error opening wrfchemi_gocart_bg_d01 for reading. 100
d01 2018-01-01_00:00:00 Input data processed for aux input   8 for domain   1
open_aux_u : error opening wrfchemv_d01 for reading. 100
 Tile Strategy is not specified. Assuming 1D-Y
WRF TILE   1 IS    434 IE    447 JS     11 JE     19
WRF NUMBER OF TILES =   1
 max optd  1.1202017E+21
 max taucldi  8.7917618E+20
 max taucldw  0.3636805    
 =================================================
 W R F - G C   T I M E R S
    Domain           1 (Units: s)
 =================================================
  => Coupler Component                       0.027
   -- Physics & Parameterization             0.001
   -- Diagnostics Out                        0.000
  => GEOS-Chem Column                        0.000
  ===> Total Chemistry                       0.027
  => WRF                                     0.000
  ===> Total WRF-GC                          0.027
 max optd  1.1202017E+21
 max taucldi  8.7917618E+20
 max taucldw   4.314448    
 %%%%%%%%% GIGC IN-PET GRID SWITCHING HACKS %%%%%%%%%
     (Not very) Proudly brought to you by hplin      
 Some debug information:
 ID:           1
 IM, JM, LM:          14           9          49  will be set as PAR
 Allocs: CMN T GC T
 RC at entry-point:           0
 %%%%%%%%%%%%%%%%%%%%%%%%%%%%%%%%%%%%%%%%%%%%%%%%%%%%
 No need to switch HcoState for ID           1
 Debug HcoState nSpc, NX, NY, NZ         163          14           9          49
 Exit RC:            0
 %%%%%%%%%    FINISHED GIGC_Switch_Dims    %%%%%%%%%
 GIGC_Chunk_Run: Running for in-PET grid #           1
 GIGC_Chunk_Run: Received new grid IM, JM, LM =          14           9
          49
HEMCO: Opening /fsx/HEMCO/BIOFUEL/v2014-07/biofuel.geos.4x5.nc
HEMCO: Opening /fsx/HEMCO/BROMINE/v2015-02/Bromocarb_Liang2010.nc
HEMCO: Opening /fsx/HEMCO/ACET/v2014-07/ACET_seawater.generic.1x1.nc
HEMCO: Opening /fsx/HEMCO/SOILNOX/v2014-07/DepReservoirDefault.nc
HEMCO: Opening /fsx/HEMCO/SOILNOX/v2014-07/soilNOx.landtype.generic.025x025.1L.nc
HEMCO: Opening /fsx/HEMCO/SOILNOX/v2014-07/soilNOx.climate.generic.05x05.nc
HEMCO: Opening /fsx/HEMCO/DUST_DEAD/v2014-07/dst_tibds.geos.4x5.nc
HEMCO: Opening /fsx/HEMCO/DUST_DEAD/v2014-07/GOCART_src_fn.geos.4x5.nc
HEMCO: Opening /fsx/HEMCO/MEGAN/v2018-05/MEGAN2.1_EF.geos.025x03125.nc
HEMCO: Opening /fsx/HEMCO/MEGAN/v2017-07/CLM4_PFT.geos.025x03125.nc
HEMCO: Opening /fsx/HEMCO/TIMEZONES/v2015-02/timezones_voronoi_1x1.nc
HEMCO: Opening /fsx/HEMCO/STRAT/v2015-01/Bry/GEOSCCM_Bry.200701.day.nc
HEMCO: Opening /fsx/HEMCO/STRAT/v2015-01/Bry/GEOSCCM_Bry.200701.night.nc
HEMCO: Opening /fsx/HEMCO/OMOC/v2018-01/OMOC.DJF.01x01.nc
HEMCO: Opening /fsx/HEMCO/OMOC/v2018-01/OMOC.MAM.01x01.nc
HEMCO: Opening /fsx/HEMCO/OMOC/v2018-01/OMOC.JJA.01x01.nc
HEMCO: Opening /fsx/HEMCO/OMOC/v2018-01/OMOC.SON.01x01.nc
HEMCO: Opening /fsx/HEMCO/AnnualScalar/v2014-07/AnnualScalar.geos.1x1.nc
HEMCO: Opening /fsx/HEMCO/EDGARv42/v2015-02/NO/EDGAR_hourly_NOxScal.nc
HEMCO: Opening /fsx/HEMCO/MASKS/v2018-09/EMEP_mask.geos.1x1.20151222.nc
HEMCO: Opening /fsx/HEMCO/MASKS/v2018-09/Canada_mask.geos.1x1.nc
HEMCO: Opening /fsx/HEMCO/MASKS/v2018-09/SE_Asia_mask.generic.1x1.nc
HEMCO: Opening /fsx/HEMCO/MASKS/v2018-09/MIX_Asia_mask.generic.025x025.nc
HEMCO: Opening /fsx/HEMCO/MASKS/v2018-09/CONUS_Mask.01x01.nc
HEMCO: Opening /fsx/HEMCO/MASKS/v2018-09/AF_LANDMASK.geos.05x0666.global.nc
HEMCO: Opening /fsx/HEMCO/MASKS/v2018-09/China_mask.generic.1x1.nc
HEMCO: Opening /fsx/HEMCO/MASKS/v2018-09/India_mask.generic.1x1.nc
HEMCO: Opening /fsx/HEMCO/AnnualScalar/v2014-07/AnnualScalar.geos.1x1.nc
HEMCO: Opening /fsx/HEMCO/NH3/v2014-07/NH3_geos.4x5.nc
HEMCO: Opening /fsx/HEMCO/NH3/v2018-04/NH3_Arctic_seabirds.nc
HEMCO: Opening /fsx/HEMCO/CEDS/v2018-08/2014/NO-em-anthro_CMIP_CEDS_2014.nc
HEMCO: Opening /fsx/HEMCO/CEDS/v2018-08/2014/CO-em-anthro_CMIP_CEDS_2014.nc
HEMCO: Opening /fsx/HEMCO/CEDS/v2018-08/2014/SO2-em-anthro_CMIP_CEDS_2014.nc
HEMCO: Opening /fsx/HEMCO/CEDS/v2018-08/2014/NH3-em-anthro_CMIP_CEDS_2014.nc
HEMCO: Opening /fsx/HEMCO/CEDS/v2018-08/2014/BC-em-anthro_CMIP_CEDS_2014.nc
HEMCO: Opening /fsx/HEMCO/CEDS/v2018-08/2014/OC-em-anthro_CMIP_CEDS_2014.nc
HEMCO: Opening /fsx/HEMCO/CEDS/v2018-08/2014/EOH-em-anthro_CMIP_CEDS_2014.nc
HEMCO: Opening /fsx/HEMCO/CEDS/v2018-08/2014/C2H6-em-anthro_CMIP_CEDS_2014.nc
HEMCO: Opening /fsx/HEMCO/CEDS/v2018-08/2014/C3H8-em-anthro_CMIP_CEDS_2014.nc
HEMCO: Opening /fsx/HEMCO/CEDS/v2018-08/2014/ALK4_butanes-em-anthro_CMIP_CEDS_2014.nc
HEMCO: Opening /fsx/HEMCO/CEDS/v2018-08/2014/ALK4_pentanes-em-anthro_CMIP_CEDS_2014.nc
HEMCO: Opening /fsx/HEMCO/CEDS/v2018-08/2014/ALK4_hexanes-em-anthro_CMIP_CEDS_2014.nc
HEMCO: Opening /fsx/HEMCO/CEDS/v2018-08/2014/PRPE-em-anthro_CMIP_CEDS_2014.nc
HEMCO: Opening /fsx/HEMCO/CEDS/v2018-08/2014/BENZ-em-anthro_CMIP_CEDS_2014.nc
HEMCO: Opening /fsx/HEMCO/CEDS/v2018-08/2014/TOLU-em-anthro_CMIP_CEDS_2014.nc
HEMCO: Opening /fsx/HEMCO/CEDS/v2018-08/2014/XYLE-em-anthro_CMIP_CEDS_2014.nc
HEMCO: Opening /fsx/HEMCO/CEDS/v2018-08/2014/CH2O-em-anthro_CMIP_CEDS_2014.nc
HEMCO: Opening /fsx/HEMCO/CEDS/v2018-08/2014/ALD2-em-anthro_CMIP_CEDS_2014.nc
HEMCO: Opening /fsx/HEMCO/CEDS/v2018-08/2014/MEK-em-anthro_CMIP_CEDS_2014.nc
HEMCO: Opening /fsx/HEMCO/CEDS/v2018-08/2014/HCOOH-em-anthro_CMIP_CEDS_2014.nc
HEMCO: Opening /fsx/HEMCO/C2H6_2010/v2017-05/C2H6_global_anth_biof.201001.nc
HEMCO: Opening /fsx/HEMCO/NEI2011/v2017-02-MM/01/NEI11_0.1x0.1_201101_monmean.nc
HEMCO: Opening /fsx/HEMCO/NEI2011/v2017-02-MM/01/NEI11_0.1x0.1_201101_monmean_egu.nc
HEMCO: Opening /fsx/HEMCO/NEI2011/v2017-02-MM/01/NEI11_0.1x0.1_201101_monmean_egupk.nc
HEMCO: Opening /fsx/HEMCO/NEI2011/v2017-02-MM/01/NEI11_0.1x0.1_201101_monmean_oilgas.nc
HEMCO: Opening /fsx/HEMCO/NEI2011/v2017-02-MM/01/NEI11_0.1x0.1_201101_monmean_othpt.nc
HEMCO: Opening /fsx/HEMCO/NEI2011/v2017-02-MM/01/NEI11_0.1x0.1_201101_monmean_ptnonipm.nc
HEMCO: Opening /fsx/HEMCO/IODINE/v2017-09/CH3I_monthly_emissions_Ordonez_2012_COARDS.nc
HEMCO: Opening /fsx/HEMCO/IODINE/v2017-09/CH2I2_monthly_emissions_Ordonez_2012_COARDS.nc
HEMCO: Opening /fsx/HEMCO/IODINE/v2017-09/CH2ICl_monthly_emissions_Ordonez_2012_COARDS.nc
HEMCO: Opening /fsx/HEMCO/IODINE/v2017-09/CH2IBr_monthly_emissions_Ordonez_2012_COARDS.nc
HEMCO: Opening /fsx/HEMCO/CEDS/v2018-08/2014/CO-em-anthro_CMIP_CEDS_2014.nc
HEMCO: Opening /fsx/HEMCO/CEDS/v2018-08/2014/SO2-em-anthro_CMIP_CEDS_2014.nc
HEMCO: Opening /fsx/HEMCO/CEDS/v2018-08/2014/NH3-em-anthro_CMIP_CEDS_2014.nc
HEMCO: Opening /fsx/HEMCO/CEDS/v2018-08/2014/BC-em-anthro_CMIP_CEDS_2014.nc
HEMCO: Opening /fsx/HEMCO/CEDS/v2018-08/2014/OC-em-anthro_CMIP_CEDS_2014.nc
HEMCO: Opening /fsx/HEMCO/CEDS/v2018-08/2014/EOH-em-anthro_CMIP_CEDS_2014.nc
HEMCO: Opening /fsx/HEMCO/CEDS/v2018-08/2014/C2H6-em-anthro_CMIP_CEDS_2014.nc
HEMCO: Opening /fsx/HEMCO/CEDS/v2018-08/2014/C3H8-em-anthro_CMIP_CEDS_2014.nc
HEMCO: Opening /fsx/HEMCO/CEDS/v2018-08/2014/ALK4_butanes-em-anthro_CMIP_CEDS_2014.nc
HEMCO: Opening /fsx/HEMCO/CEDS/v2018-08/2014/ALK4_pentanes-em-anthro_CMIP_CEDS_2014.nc
HEMCO: Opening /fsx/HEMCO/CEDS/v2018-08/2014/ALK4_hexanes-em-anthro_CMIP_CEDS_2014.nc
HEMCO: Opening /fsx/HEMCO/CEDS/v2018-08/2014/PRPE-em-anthro_CMIP_CEDS_2014.nc
HEMCO: Opening /fsx/HEMCO/CEDS/v2018-08/2014/BENZ-em-anthro_CMIP_CEDS_2014.nc
HEMCO: Opening /fsx/HEMCO/CEDS/v2018-08/2014/TOLU-em-anthro_CMIP_CEDS_2014.nc
HEMCO: Opening /fsx/HEMCO/CEDS/v2018-08/2014/XYLE-em-anthro_CMIP_CEDS_2014.nc
HEMCO: Opening /fsx/HEMCO/CEDS/v2018-08/2014/CH2O-em-anthro_CMIP_CEDS_2014.nc
HEMCO: Opening /fsx/HEMCO/CEDS/v2018-08/2014/ALD2-em-anthro_CMIP_CEDS_2014.nc
HEMCO: Opening /fsx/HEMCO/CEDS/v2018-08/2014/MEK-em-anthro_CMIP_CEDS_2014.nc
HEMCO: Opening /fsx/HEMCO/CEDS/v2018-08/2014/HCOOH-em-anthro_CMIP_CEDS_2014.nc
HEMCO: Opening /fsx/HEMCO/CEDS/v2018-08/2014/NO-em-anthro_CMIP_CEDS_2014.nc
HEMCO: Opening /fsx/HEMCO/AEIC/v2015-01/AEIC.47L.gen.1x1.nc
HEMCO: Opening /fsx/HEMCO/ALD2/v2017-03/resp.geos.2x25.nc
HEMCO: Opening /fsx/HEMCO/DMS/v2015-07/DMS_lana.geos.1x1.nc
HEMCO: Opening /fsx/HEMCO/ALD2/v2017-03/ALD2_seawater.geos.2x25.nc
HEMCO: Opening /fsx/HEMCO/DUST_DEAD/v2014-07/dst_tvbds.geos.4x5.nc
HEMCO: Opening /fsx/HEMCO/DUST_DEAD/v2018-04/PM25FINE_ECLIPSE_2015.geos.2x25.nc
HEMCO: Opening /fsx/HEMCO/SOA/v2014-07/NVOC.geos.1x1.nc
HEMCO: Opening /fsx/HEMCO/GFED4/v2015-10/2016/GFED4_gen.025x025.201601.nc
HEMCO: Opening /fsx/HEMCO/UVALBEDO/v2015-03/uvalbedo.geos.2x25.nc
HEMCO: Opening /fsx/HEMCO/GMI/v2015-02/gmi.clim.ACET.geos5.2x25.nc
HEMCO: Opening /fsx/HEMCO/GMI/v2015-02/gmi.clim.ACTA.geos5.2x25.nc
HEMCO: Opening /fsx/HEMCO/GMI/v2015-02/gmi.clim.ALD2.geos5.2x25.nc
HEMCO: Opening /fsx/HEMCO/GMI/v2015-02/gmi.clim.ALK4.geos5.2x25.nc
HEMCO: Opening /fsx/HEMCO/GMI/v2015-02/gmi.clim.C2H6.geos5.2x25.nc
HEMCO: Opening /fsx/HEMCO/GMI/v2015-02/gmi.clim.C3H8.geos5.2x25.nc
HEMCO: Opening /fsx/HEMCO/GMI/v2015-02/gmi.clim.CCl4.geos5.2x25.nc
HEMCO: Opening /fsx/HEMCO/GMI/v2015-02/gmi.clim.CF2Cl2.geos5.2x25.nc
HEMCO: Opening /fsx/HEMCO/GMI/v2015-02/gmi.clim.CF2ClBr.geos5.2x25.nc
HEMCO: Opening /fsx/HEMCO/GMI/v2015-02/gmi.clim.CFC113.geos5.2x25.nc
HEMCO: Opening /fsx/HEMCO/GMI/v2015-02/gmi.clim.CFC114.geos5.2x25.nc
HEMCO: Opening /fsx/HEMCO/GMI/v2015-02/gmi.clim.CFC115.geos5.2x25.nc
HEMCO: Opening /fsx/HEMCO/GMI/v2015-02/gmi.clim.CFCl3.geos5.2x25.nc
HEMCO: Opening /fsx/HEMCO/GMI/v2015-02/gmi.clim.CH2O.geos5.2x25.nc
HEMCO: Opening /fsx/HEMCO/GMI/v2015-02/gmi.clim.CH3CCl3.geos5.2x25.nc
HEMCO: Opening /fsx/HEMCO/GMI/v2015-02/gmi.clim.CH3Cl.geos5.2x25.nc
HEMCO: Opening /fsx/HEMCO/GMI/v2015-02/gmi.clim.CH4.geos5.2x25.nc
HEMCO: Opening /fsx/HEMCO/GMI/v2015-02/gmi.clim.CO.geos5.2x25.nc
HEMCO: Opening /fsx/HEMCO/GMI/v2015-02/gmi.clim.Cl.geos5.2x25.nc
HEMCO: Opening /fsx/HEMCO/GMI/v2015-02/gmi.clim.Cl2.geos5.2x25.nc
HEMCO: Opening /fsx/HEMCO/GMI/v2015-02/gmi.clim.Cl2O2.geos5.2x25.nc
HEMCO: Opening /fsx/HEMCO/GMI/v2015-02/gmi.clim.ClO.geos5.2x25.nc
HEMCO: Opening /fsx/HEMCO/GMI/v2015-02/gmi.clim.EOH.geos5.2x25.nc
HEMCO: Opening /fsx/HEMCO/GMI/v2015-02/gmi.clim.GLYC.geos5.2x25.nc
HEMCO: Opening /fsx/HEMCO/GMI/v2015-02/gmi.clim.GLYX.geos5.2x25.nc
HEMCO: Opening /fsx/HEMCO/GMI/v2015-02/gmi.clim.H2402.geos5.2x25.nc
HEMCO: Opening /fsx/HEMCO/GMI/v2015-02/gmi.clim.H2O.geos5.2x25.nc
HEMCO: Opening /fsx/HEMCO/GMI/v2015-02/gmi.clim.H2O2.geos5.2x25.nc
HEMCO: Opening /fsx/HEMCO/GMI/v2015-02/gmi.clim.HAC.geos5.2x25.nc
HEMCO: Opening /fsx/HEMCO/GMI/v2015-02/gmi.clim.HCFC141b.geos5.2x25.nc
HEMCO: Opening /fsx/HEMCO/GMI/v2015-02/gmi.clim.HCFC142b.geos5.2x25.nc
HEMCO: Opening /fsx/HEMCO/GMI/v2015-02/gmi.clim.HCFC22.geos5.2x25.nc
HEMCO: Opening /fsx/HEMCO/GMI/v2015-02/gmi.clim.HCOOH.geos5.2x25.20170108.nc
HEMCO: Opening /fsx/HEMCO/GMI/v2015-02/gmi.clim.HCl.geos5.2x25.nc
HEMCO: Opening /fsx/HEMCO/GMI/v2015-02/gmi.clim.HNO2.geos5.2x25.nc
HEMCO: Opening /fsx/HEMCO/GMI/v2015-02/gmi.clim.HNO3.geos5.2x25.nc
HEMCO: Opening /fsx/HEMCO/GMI/v2015-02/gmi.clim.HNO4.geos5.2x25.nc
HEMCO: Opening /fsx/HEMCO/GMI/v2015-02/gmi.clim.HOCl.geos5.2x25.nc
HEMCO: Opening /fsx/HEMCO/GMI/v2015-02/gmi.clim.ISN1.geos5.2x25.nc
HEMCO: Opening /fsx/HEMCO/GMI/v2015-02/gmi.clim.ISOP.geos5.2x25.nc
HEMCO: Opening /fsx/HEMCO/GMI/v2015-02/gmi.clim.MACR.geos5.2x25.nc
HEMCO: Opening /fsx/HEMCO/GMI/v2015-02/gmi.clim.MAP.geos5.2x25.nc
HEMCO: Opening /fsx/HEMCO/GMI/v2015-02/gmi.clim.MEK.geos5.2x25.nc
HEMCO: Opening /fsx/HEMCO/GMI/v2015-02/gmi.clim.MGLY.geos5.2x25.nc
HEMCO: Opening /fsx/HEMCO/GMI/v2015-02/gmi.clim.MP.geos5.2x25.nc
HEMCO: Opening /fsx/HEMCO/GMI/v2015-02/gmi.clim.MVK.geos5.2x25.nc
HEMCO: Opening /fsx/HEMCO/GMI/v2015-02/gmi.clim.N2O.geos5.2x25.nc
HEMCO: Opening /fsx/HEMCO/GMI/v2015-02/gmi.clim.N2O5.geos5.2x25.nc
HEMCO: Opening /fsx/HEMCO/GMI/v2015-02/gmi.clim.NO.geos5.2x25.nc
HEMCO: Opening /fsx/HEMCO/GMI/v2015-02/gmi.clim.NO2.geos5.2x25.nc
HEMCO: Opening /fsx/HEMCO/GMI/v2015-02/gmi.clim.NO3.geos5.2x25.nc
HEMCO: Opening /fsx/HEMCO/GMI/v2015-02/gmi.clim.O3.geos5.2x25.nc
HEMCO: Opening /fsx/HEMCO/GMI/v2015-02/gmi.clim.OClO.geos5.2x25.nc
HEMCO: Opening /fsx/HEMCO/GMI/v2015-02/gmi.clim.PAN.geos5.2x25.nc
HEMCO: Opening /fsx/HEMCO/GMI/v2015-02/gmi.clim.NPMN.geos5.2x25.nc
HEMCO: Opening /fsx/HEMCO/GMI/v2015-02/gmi.clim.IPMN.geos5.2x25.nc
HEMCO: Opening /fsx/HEMCO/GMI/v2015-02/gmi.clim.PPN.geos5.2x25.nc
HEMCO: Opening /fsx/HEMCO/GMI/v2015-02/gmi.clim.PRPE.geos5.2x25.nc
HEMCO: Opening /fsx/HEMCO/GMI/v2015-02/gmi.clim.R4N2.geos5.2x25.nc
HEMCO: Opening /fsx/HEMCO/GMI/v2015-02/gmi.clim.RCHO.geos5.2x25.nc
HEMCO: Opening /fsx/HEMCO/GMI/v2015-02/gmi.clim.RIPA.geos5.2x25.nc
HEMCO: Opening /fsx/HEMCO/GMI/v2015-02/gmi.clim.RIPB.geos5.2x25.nc
HEMCO: Opening /fsx/HEMCO/GMI/v2015-02/gmi.clim.RIPD.geos5.2x25.nc
HEMCO: Opening /fsx/HEMCO/GMI/v2015-02/gmi.clim.OH.geos5.2x25.nc
HEMCO: Opening /fsx/HEMCO/NOAA_GMD/v2018-01/monthly.gridded.surface.methane.1979-2020.1x1.nc
HEMCO: Opening /fsx/HEMCO/GEIA/v2014-07/GEIA_monthscal.generic.1x1.nc
HEMCO: Opening /fsx/HEMCO/EMEP/v2015-03/EMEP.Seasonal.geos.1x1.nc
HEMCO: Opening /fsx/HEMCO/BROMINE/v2015-02/BromoCarb_Season.nc
HEMCO: Opening /fsx/HEMCO/EDGARv43/v2016-11/EDGAR_v43.Seasonal.1x1.nc
HEMCO: Opening /fsx/HEMCO/NEI2005/v2014-09/scaling/NEI99.dow.geos.1x1.nc
HEMCO: Opening /fsx/HEMCO/VOLCANO/v2015-02/2009/volc_so2_gen.1x1.47L.200901.nc
HEMCO: Opening /fsx/HEMCO/SOILNOX/v2014-07/soilNOx.fert_res.generic.05x05.nc
 vdinti: pbl height will be limited to bottom           25  model levels. top is
     431.250100000000       hpa
 =================================================
 W R F - G C   T I M E R S
    Domain           1 (Units: s)
 =================================================
  => Coupler Component                       0.053
   -- Physics & Parameterization             0.011
   -- Diagnostics Out                        0.000
  => GEOS-Chem Column                      133.545
  ===> Total Chemistry                     133.598
  => WRF                                    17.271
  ===> Total WRF-GC                        150.869
 max optd  4.5185168E+30
 max taucldi  1.5178739E-07
 max taucldw   8.224936    
 Switching is not necessary as we are already
 in the right domain!
 GIGC_Chunk_Run: Running for in-PET grid #           1
 GIGC_Chunk_Run: Received new grid IM, JM, LM =          14           9
          49
 =================================================
 W R F - G C   T I M E R S
    Domain           1 (Units: s)
 =================================================
  => Coupler Component                       0.081
   -- Physics & Parameterization             0.020
   -- Diagnostics Out                        0.000
  => GEOS-Chem Column                      134.700
  ===> Total Chemistry                     134.781
  => WRF                                    57.341
  ===> Total WRF-GC                        192.122
 max optd  4.5185168E+30
 max taucldi  1.8448789E-07
 max taucldw   11.95945    
 Switching is not necessary as we are already
 in the right domain!
 GIGC_Chunk_Run: Running for in-PET grid #           1
 GIGC_Chunk_Run: Received new grid IM, JM, LM =          14           9
          49
 =================================================
 W R F - G C   T I M E R S
    Domain           1 (Units: s)
 =================================================
  => Coupler Component                       0.109
   -- Physics & Parameterization             0.030
   -- Diagnostics Out                        0.000
  => GEOS-Chem Column                      135.801
  ===> Total Chemistry                     135.910
  => WRF                                    78.051
  ===> Total WRF-GC                        213.961
 max optd  4.5185168E+30
 max taucldi  2.1475253E-07
 max taucldw   16.76632    
 Switching is not necessary as we are already
 in the right domain!
 GIGC_Chunk_Run: Running for in-PET grid #           1
 GIGC_Chunk_Run: Received new grid IM, JM, LM =          14           9
          49
 =================================================
 W R F - G C   T I M E R S
    Domain           1 (Units: s)
 =================================================
  => Coupler Component                       0.136
   -- Physics & Parameterization             0.039
   -- Diagnostics Out                        0.000
  => GEOS-Chem Column                      136.947
  ===> Total Chemistry                     137.083
  => WRF                                    97.011
  ===> Total WRF-GC                        234.094
 max optd  4.5185168E+30
 max taucldi  2.3120235E-07
 max taucldw   21.59509    
 Switching is not necessary as we are already
 in the right domain!
 GIGC_Chunk_Run: Running for in-PET grid #           1
 GIGC_Chunk_Run: Received new grid IM, JM, LM =          14           9
          49
 =================================================
 W R F - G C   T I M E R S
    Domain           1 (Units: s)
 =================================================
  => Coupler Component                       0.164
   -- Physics & Parameterization             0.049
   -- Diagnostics Out                        0.000
  => GEOS-Chem Column                      138.080
  ===> Total Chemistry                     138.244
  => WRF                                   115.514
  ===> Total WRF-GC                        253.758
 max optd  4.5185168E+30
 max taucldi  2.6355602E-07
 max taucldw   25.59437    
 Switching is not necessary as we are already
 in the right domain!
 GIGC_Chunk_Run: Running for in-PET grid #           1
 GIGC_Chunk_Run: Received new grid IM, JM, LM =          14           9
          49
 =================================================
 W R F - G C   T I M E R S
    Domain           1 (Units: s)
 =================================================
  => Coupler Component                       0.190
   -- Physics & Parameterization             0.058
   -- Diagnostics Out                        0.000
  => GEOS-Chem Column                      139.196
  ===> Total Chemistry                     139.386
  => WRF                                   133.886
  ===> Total WRF-GC                        273.272
 max optd  4.5185168E+30
 max taucldi  2.8227097E-07
 max taucldw   28.27298    
 Switching is not necessary as we are already
 in the right domain!
 GIGC_Chunk_Run: Running for in-PET grid #           1
 GIGC_Chunk_Run: Received new grid IM, JM, LM =          14           9
          49
 =================================================
 W R F - G C   T I M E R S
    Domain           1 (Units: s)
 =================================================
  => Coupler Component                       0.218
   -- Physics & Parameterization             0.068
   -- Diagnostics Out                        0.000
  => GEOS-Chem Column                      140.176
  ===> Total Chemistry                     140.394
  => WRF                                   152.290
  ===> Total WRF-GC                        292.684
 max optd  4.5185168E+30
 max taucldi  2.9439312E-07
 max taucldw   29.24981    
 Switching is not necessary as we are already
 in the right domain!
 GIGC_Chunk_Run: Running for in-PET grid #           1
 GIGC_Chunk_Run: Received new grid IM, JM, LM =          14           9
          49
 =================================================
 W R F - G C   T I M E R S
    Domain           1 (Units: s)
 =================================================
  => Coupler Component                       0.248
   -- Physics & Parameterization             0.077
   -- Diagnostics Out                        0.000
  => GEOS-Chem Column                      141.125
  ===> Total Chemistry                     141.372
  => WRF                                   170.729
  ===> Total WRF-GC                        312.101
 max optd  4.5185168E+30
 max taucldi  3.1125597E-07
 max taucldw   30.64206    
 Switching is not necessary as we are already
 in the right domain!
 GIGC_Chunk_Run: Running for in-PET grid #           1
 GIGC_Chunk_Run: Received new grid IM, JM, LM =          14           9
          49
 =================================================
 W R F - G C   T I M E R S
    Domain           1 (Units: s)
 =================================================
  => Coupler Component                       0.275
   -- Physics & Parameterization             0.087
   -- Diagnostics Out                        0.000
  => GEOS-Chem Column                      142.072
  ===> Total Chemistry                     142.347
  => WRF                                   189.236
  ===> Total WRF-GC                        331.583
 max optd  4.5185168E+30
 max taucldi  3.2819500E-07
 max taucldw   33.19080    
 Switching is not necessary as we are already
 in the right domain!
 GIGC_Chunk_Run: Running for in-PET grid #           1
 GIGC_Chunk_Run: Received new grid IM, JM, LM =          14           9
          49
 =================================================
 W R F - G C   T I M E R S
    Domain           1 (Units: s)
 =================================================
  => Coupler Component                       0.304
   -- Physics & Parameterization             0.096
   -- Diagnostics Out                        0.000
  => GEOS-Chem Column                      143.026
  ===> Total Chemistry                     143.330
  => WRF                                   207.781
  ===> Total WRF-GC                        351.111
 max optd  4.5185168E+30
 max taucldi  3.4314272E-07
 max taucldw   34.36019    
 Switching is not necessary as we are already
 in the right domain!
 GIGC_Chunk_Run: Running for in-PET grid #           1
 GIGC_Chunk_Run: Received new grid IM, JM, LM =          14           9
          49
 =================================================
 W R F - G C   T I M E R S
    Domain           1 (Units: s)
 =================================================
  => Coupler Component                       0.332
   -- Physics & Parameterization             0.106
   -- Diagnostics Out                        0.000
  => GEOS-Chem Column                      143.966
  ===> Total Chemistry                     144.298
  => WRF                                   226.241
  ===> Total WRF-GC                        370.539
 max optd  4.5185168E+30
 max taucldi  3.6094198E-07
 max taucldw   34.97832    
 Switching is not necessary as we are already
 in the right domain!
 GIGC_Chunk_Run: Running for in-PET grid #           1
 GIGC_Chunk_Run: Received new grid IM, JM, LM =          14           9
          49
 =================================================
 W R F - G C   T I M E R S
    Domain           1 (Units: s)
 =================================================
  => Coupler Component                       0.362
   -- Physics & Parameterization             0.116
   -- Diagnostics Out                        0.000
  => GEOS-Chem Column                      144.915
  ===> Total Chemistry                     145.277
  => WRF                                   244.597
  ===> Total WRF-GC                        389.874
 HOURLY EMISSIONS UPDATE TIME     3600.0       0.0
mediation_integrate: med_read_wrf_chem_emissions: Read emissions for time 2018-01-01_01:00:00
 max optd  4.5185168E+30
 max taucldi  3.8253589E-07
 max taucldw   34.93676    
 Switching is not necessary as we are already
 in the right domain!
 GIGC_Chunk_Run: Running for in-PET grid #           1
 GIGC_Chunk_Run: Received new grid IM, JM, LM =          14           9
          49
 =================================================
 W R F - G C   T I M E R S
    Domain           1 (Units: s)
 =================================================
  => Coupler Component                       0.395
   -- Physics & Parameterization             0.125
   -- Diagnostics Out                        0.000
  => GEOS-Chem Column                      145.869
  ===> Total Chemistry                     146.264
  => WRF                                   263.040
  ===> Total WRF-GC                        409.303
 max optd  4.5185168E+30
 max taucldi  4.0667953E-07
 max taucldw   34.82785    
 Switching is not necessary as we are already
 in the right domain!
 GIGC_Chunk_Run: Running for in-PET grid #           1
 GIGC_Chunk_Run: Received new grid IM, JM, LM =          14           9
          49
 =================================================
 W R F - G C   T I M E R S
    Domain           1 (Units: s)
 =================================================
  => Coupler Component                       0.429
   -- Physics & Parameterization             0.135
   -- Diagnostics Out                        0.000
  => GEOS-Chem Column                      146.825
  ===> Total Chemistry                     147.253
  => WRF                                   281.452
  ===> Total WRF-GC                        428.706
 max optd  4.5185168E+30
 max taucldi  4.5799544E-07
 max taucldw   34.87328    
 Switching is not necessary as we are already
 in the right domain!
 GIGC_Chunk_Run: Running for in-PET grid #           1
 GIGC_Chunk_Run: Received new grid IM, JM, LM =          14           9
          49
 =================================================
 W R F - G C   T I M E R S
    Domain           1 (Units: s)
 =================================================
  => Coupler Component                       0.457
   -- Physics & Parameterization             0.145
   -- Diagnostics Out                        0.000
  => GEOS-Chem Column                      147.772
  ===> Total Chemistry                     148.230
  => WRF                                   299.730
  ===> Total WRF-GC                        447.960
 max optd  4.5185168E+30
 max taucldi  5.8103853E-07
 max taucldw   35.06022    
 Switching is not necessary as we are already
 in the right domain!
 GIGC_Chunk_Run: Running for in-PET grid #           1
 GIGC_Chunk_Run: Received new grid IM, JM, LM =          14           9
          49
 =================================================
 W R F - G C   T I M E R S
    Domain           1 (Units: s)
 =================================================
  => Coupler Component                       0.492
   -- Physics & Parameterization             0.154
   -- Diagnostics Out                        0.000
  => GEOS-Chem Column                      148.731
  ===> Total Chemistry                     149.223
  => WRF                                   318.127
  ===> Total WRF-GC                        467.350
 max optd  4.5185168E+30
 max taucldi  7.5151308E-07
 max taucldw   34.21499    
 Switching is not necessary as we are already
 in the right domain!
 GIGC_Chunk_Run: Running for in-PET grid #           1
 GIGC_Chunk_Run: Received new grid IM, JM, LM =          14           9
          49
 =================================================
 W R F - G C   T I M E R S
    Domain           1 (Units: s)
 =================================================
  => Coupler Component                       0.524
   -- Physics & Parameterization             0.164
   -- Diagnostics Out                        0.000
  => GEOS-Chem Column                      149.686
  ===> Total Chemistry                     150.210
  => WRF                                   336.448
  ===> Total WRF-GC                        486.658
 max optd  4.5185168E+30
 max taucldi  9.6165388E-07
 max taucldw   33.54957    
 Switching is not necessary as we are already
 in the right domain!
 GIGC_Chunk_Run: Running for in-PET grid #           1
 GIGC_Chunk_Run: Received new grid IM, JM, LM =          14           9
          49
 =================================================
 W R F - G C   T I M E R S
    Domain           1 (Units: s)
 =================================================
  => Coupler Component                       0.559
   -- Physics & Parameterization             0.174
   -- Diagnostics Out                        0.000
  => GEOS-Chem Column                      150.644
  ===> Total Chemistry                     151.202
  => WRF                                   354.734
  ===> Total WRF-GC                        505.936
 max optd  4.5185168E+30
 max taucldi  1.2093665E-06
 max taucldw   33.98682    
 Switching is not necessary as we are already
 in the right domain!
 GIGC_Chunk_Run: Running for in-PET grid #           1
 GIGC_Chunk_Run: Received new grid IM, JM, LM =          14           9
          49
 =================================================
 W R F - G C   T I M E R S
    Domain           1 (Units: s)
 =================================================
  => Coupler Component                       0.588
   -- Physics & Parameterization             0.184
   -- Diagnostics Out                        0.000
  => GEOS-Chem Column                      151.592
  ===> Total Chemistry                     152.180
  => WRF                                   373.074
  ===> Total WRF-GC                        525.254
 max optd  4.5185168E+30
 max taucldi  1.5666010E-06
 max taucldw   34.73406    
 Switching is not necessary as we are already
 in the right domain!
 GIGC_Chunk_Run: Running for in-PET grid #           1
 GIGC_Chunk_Run: Received new grid IM, JM, LM =          14           9
          49
 =================================================
 W R F - G C   T I M E R S
    Domain           1 (Units: s)
 =================================================
  => Coupler Component                       0.627
   -- Physics & Parameterization             0.194
   -- Diagnostics Out                        0.000
  => GEOS-Chem Column                      152.551
  ===> Total Chemistry                     153.179
  => WRF                                   391.562
  ===> Total WRF-GC                        544.740
 max optd  4.5185168E+30
 max taucldi  1.9295348E-06
 max taucldw   35.09033    
 Switching is not necessary as we are already
 in the right domain!
 GIGC_Chunk_Run: Running for in-PET grid #           1
 GIGC_Chunk_Run: Received new grid IM, JM, LM =          14           9
          49
 =================================================
 W R F - G C   T I M E R S
    Domain           1 (Units: s)
 =================================================
  => Coupler Component                       0.665
   -- Physics & Parameterization             0.203
   -- Diagnostics Out                        0.000
  => GEOS-Chem Column                      153.512
  ===> Total Chemistry                     154.176
  => WRF                                   409.751
  ===> Total WRF-GC                        563.927
 max optd  4.5185168E+30
 max taucldi  2.2617496E-06
 max taucldw   34.92289    
 Switching is not necessary as we are already
 in the right domain!
 GIGC_Chunk_Run: Running for in-PET grid #           1
 GIGC_Chunk_Run: Received new grid IM, JM, LM =          14           9
          49
 =================================================
 W R F - G C   T I M E R S
    Domain           1 (Units: s)
 =================================================
  => Coupler Component                       0.701
   -- Physics & Parameterization             0.213
   -- Diagnostics Out                        0.000
  => GEOS-Chem Column                      154.472
  ===> Total Chemistry                     155.172
  => WRF                                   428.004
  ===> Total WRF-GC                        583.176
 max optd  4.5185168E+30
 max taucldi  2.5389552E-06
 max taucldw   35.11723    
 Switching is not necessary as we are already
 in the right domain!
 GIGC_Chunk_Run: Running for in-PET grid #           1
 GIGC_Chunk_Run: Received new grid IM, JM, LM =          14           9
          49
 =================================================
 W R F - G C   T I M E R S
    Domain           1 (Units: s)
 =================================================
  => Coupler Component                       0.738
   -- Physics & Parameterization             0.223
   -- Diagnostics Out                        0.000
  => GEOS-Chem Column                      155.433
  ===> Total Chemistry                     156.171
  => WRF                                   446.401
  ===> Total WRF-GC                        602.572
 max optd  4.5185168E+30
 max taucldi  2.7344595E-06
 max taucldw   35.78093    
 Switching is not necessary as we are already
 in the right domain!
 GIGC_Chunk_Run: Running for in-PET grid #           1
 GIGC_Chunk_Run: Received new grid IM, JM, LM =          14           9
          49
 =================================================
 W R F - G C   T I M E R S
    Domain           1 (Units: s)
 =================================================
  => Coupler Component                       0.769
   -- Physics & Parameterization             0.233
   -- Diagnostics Out                        0.000
  => GEOS-Chem Column                      156.382
  ===> Total Chemistry                     157.151
  => WRF                                   464.662
  ===> Total WRF-GC                        621.812
 HOURLY EMISSIONS UPDATE TIME     7200.0       0.0
mediation_integrate: med_read_wrf_chem_emissions: Read emissions for time 2018-01-01_02:00:00
 max optd  4.5185168E+30
 max taucldi  2.8590594E-06
 max taucldw   36.25754    
 Switching is not necessary as we are already
 in the right domain!
 GIGC_Chunk_Run: Running for in-PET grid #           1
 GIGC_Chunk_Run: Received new grid IM, JM, LM =          14           9
          49
 =================================================
 W R F - G C   T I M E R S
    Domain           1 (Units: s)
 =================================================
  => Coupler Component                       0.801
   -- Physics & Parameterization             0.243
   -- Diagnostics Out                        0.000
  => GEOS-Chem Column                      157.325
  ===> Total Chemistry                     158.126
  => WRF                                   482.962
  ===> Total WRF-GC                        641.087
 max optd  4.5185168E+30
 max taucldi  2.9355961E-06
 max taucldw   36.84484    
 Switching is not necessary as we are already
 in the right domain!
 GIGC_Chunk_Run: Running for in-PET grid #           1
 GIGC_Chunk_Run: Received new grid IM, JM, LM =          14           9
          49
 =================================================
 W R F - G C   T I M E R S
    Domain           1 (Units: s)
 =================================================
  => Coupler Component                       0.833
   -- Physics & Parameterization             0.252
   -- Diagnostics Out                        0.000
  => GEOS-Chem Column                      158.278
  ===> Total Chemistry                     159.111
  => WRF                                   501.304
  ===> Total WRF-GC                        660.415
 max optd  4.5185168E+30
 max taucldi  2.9904788E-06
 max taucldw   37.01694    
 Switching is not necessary as we are already
 in the right domain!
 GIGC_Chunk_Run: Running for in-PET grid #           1
 GIGC_Chunk_Run: Received new grid IM, JM, LM =          14           9
          49
 =================================================
 W R F - G C   T I M E R S
    Domain           1 (Units: s)
 =================================================
  => Coupler Component                       0.872
   -- Physics & Parameterization             0.262
   -- Diagnostics Out                        0.000
  => GEOS-Chem Column                      159.239
  ===> Total Chemistry                     160.111
  => WRF                                   519.537
  ===> Total WRF-GC                        679.648
 max optd  4.5185168E+30
 max taucldi  3.0715075E-06
 max taucldw   37.44884    
 Switching is not necessary as we are already
 in the right domain!
 GIGC_Chunk_Run: Running for in-PET grid #           1
 GIGC_Chunk_Run: Received new grid IM, JM, LM =          14           9
          49
 =================================================
 W R F - G C   T I M E R S
    Domain           1 (Units: s)
 =================================================
  => Coupler Component                       0.908
   -- Physics & Parameterization             0.272
   -- Diagnostics Out                        0.000
  => GEOS-Chem Column                      160.196
  ===> Total Chemistry                     161.104
  => WRF                                   537.725
  ===> Total WRF-GC                        698.829
 max optd  4.5185168E+30
 max taucldi  3.1485501E-06
 max taucldw   37.84224    
 Switching is not necessary as we are already
 in the right domain!
 GIGC_Chunk_Run: Running for in-PET grid #           1
 GIGC_Chunk_Run: Received new grid IM, JM, LM =          14           9
          49
 =================================================
 W R F - G C   T I M E R S
    Domain           1 (Units: s)
 =================================================
  => Coupler Component                       0.941
   -- Physics & Parameterization             0.281
   -- Diagnostics Out                        0.000
  => GEOS-Chem Column                      161.156
  ===> Total Chemistry                     162.097
  => WRF                                   555.974
  ===> Total WRF-GC                        718.071
 max optd  4.5185168E+30
 max taucldi  3.2015018E-06
 max taucldw   38.34391    
 Switching is not necessary as we are already
 in the right domain!
 GIGC_Chunk_Run: Running for in-PET grid #           1
 GIGC_Chunk_Run: Received new grid IM, JM, LM =          14           9
          49
 =================================================
 W R F - G C   T I M E R S
    Domain           1 (Units: s)
 =================================================
  => Coupler Component                       0.978
   -- Physics & Parameterization             0.291
   -- Diagnostics Out                        0.000
  => GEOS-Chem Column                      162.123
  ===> Total Chemistry                     163.101
  => WRF                                   574.201
  ===> Total WRF-GC                        737.303
 max optd  4.5185168E+30
 max taucldi  3.2893965E-06
 max taucldw   38.10149    
 Switching is not necessary as we are already
 in the right domain!
 GIGC_Chunk_Run: Running for in-PET grid #           1
 GIGC_Chunk_Run: Received new grid IM, JM, LM =          14           9
          49
 =================================================
 W R F - G C   T I M E R S
    Domain           1 (Units: s)
 =================================================
  => Coupler Component                       1.008
   -- Physics & Parameterization             0.301
   -- Diagnostics Out                        0.000
  => GEOS-Chem Column                      163.072
  ===> Total Chemistry                     164.080
  => WRF                                   592.408
  ===> Total WRF-GC                        756.488
 max optd  4.5185168E+30
 max taucldi  3.3730107E-06
 max taucldw   38.27379    
 Switching is not necessary as we are already
 in the right domain!
 GIGC_Chunk_Run: Running for in-PET grid #           1
 GIGC_Chunk_Run: Received new grid IM, JM, LM =          14           9
          49
 =================================================
 W R F - G C   T I M E R S
    Domain           1 (Units: s)
 =================================================
  => Coupler Component                       1.046
   -- Physics & Parameterization             0.311
   -- Diagnostics Out                        0.000
  => GEOS-Chem Column                      164.038
  ===> Total Chemistry                     165.085
  => WRF                                   610.630
  ===> Total WRF-GC                        775.715
 max optd  4.5185168E+30
 max taucldi  3.4475875E-06
 max taucldw   38.49525    
 Switching is not necessary as we are already
 in the right domain!
 GIGC_Chunk_Run: Running for in-PET grid #           1
 GIGC_Chunk_Run: Received new grid IM, JM, LM =          14           9
          49
 =================================================
 W R F - G C   T I M E R S
    Domain           1 (Units: s)
 =================================================
  => Coupler Component                       1.082
   -- Physics & Parameterization             0.320
   -- Diagnostics Out                        0.000
  => GEOS-Chem Column                      164.997
  ===> Total Chemistry                     166.078
  => WRF                                   628.812
  ===> Total WRF-GC                        794.891
 max optd  4.5185168E+30
 max taucldi  3.5125984E-06
 max taucldw   38.45988    
 Switching is not necessary as we are already
 in the right domain!
 GIGC_Chunk_Run: Running for in-PET grid #           1
 GIGC_Chunk_Run: Received new grid IM, JM, LM =          14           9
          49
 =================================================
 W R F - G C   T I M E R S
    Domain           1 (Units: s)
 =================================================
  => Coupler Component                       1.119
   -- Physics & Parameterization             0.330
   -- Diagnostics Out                        0.000
  => GEOS-Chem Column                      165.964
  ===> Total Chemistry                     167.083
  => WRF                                   647.051
  ===> Total WRF-GC                        814.133
 max optd  4.5185168E+30
 max taucldi  3.5708351E-06
 max taucldw   38.56264    
 Switching is not necessary as we are already
 in the right domain!
 GIGC_Chunk_Run: Running for in-PET grid #           1
 GIGC_Chunk_Run: Received new grid IM, JM, LM =          14           9
          49
 =================================================
 W R F - G C   T I M E R S
    Domain           1 (Units: s)
 =================================================
  => Coupler Component                       1.155
   -- Physics & Parameterization             0.339
   -- Diagnostics Out                        0.000
  => GEOS-Chem Column                      166.933
  ===> Total Chemistry                     168.088
  => WRF                                   665.202
  ===> Total WRF-GC                        833.289
 max optd  4.5185168E+30
 max taucldi  3.6252895E-06
 max taucldw   38.56054    
 Switching is not necessary as we are already
 in the right domain!
 GIGC_Chunk_Run: Running for in-PET grid #           1
 GIGC_Chunk_Run: Received new grid IM, JM, LM =          14           9
          49
 =================================================
 W R F - G C   T I M E R S
    Domain           1 (Units: s)
 =================================================
  => Coupler Component                       1.192
   -- Physics & Parameterization             0.349
   -- Diagnostics Out                        0.000
  => GEOS-Chem Column                      167.902
  ===> Total Chemistry                     169.095
  => WRF                                   683.360
  ===> Total WRF-GC                        852.455
 HOURLY EMISSIONS UPDATE TIME    10800.0       0.0
mediation_integrate: med_read_wrf_chem_emissions: Read emissions for time 2018-01-01_03:00:00
 max optd  4.5185168E+30
 max taucldi  3.6745889E-06
 max taucldw   38.65224    
 Switching is not necessary as we are already
 in the right domain!
 GIGC_Chunk_Run: Running for in-PET grid #           1
 GIGC_Chunk_Run: Received new grid IM, JM, LM =          14           9
          49
 =================================================
 W R F - G C   T I M E R S
    Domain           1 (Units: s)
 =================================================
  => Coupler Component                       1.229
   -- Physics & Parameterization             0.359
   -- Diagnostics Out                        0.000
  => GEOS-Chem Column                      168.864
  ===> Total Chemistry                     170.094
  => WRF                                   701.576
  ===> Total WRF-GC                        871.670
 max optd  4.5185168E+30
 max taucldi  3.7178602E-06
 max taucldw   38.69927    
 Switching is not necessary as we are already
 in the right domain!
 GIGC_Chunk_Run: Running for in-PET grid #           1
 GIGC_Chunk_Run: Received new grid IM, JM, LM =          14           9
          49
 =================================================
 W R F - G C   T I M E R S
    Domain           1 (Units: s)
 =================================================
  => Coupler Component                       1.265
   -- Physics & Parameterization             0.368
   -- Diagnostics Out                        0.000
  => GEOS-Chem Column                      169.835
  ===> Total Chemistry                     171.100
  => WRF                                   719.749
  ===> Total WRF-GC                        890.849
 max optd  4.5185168E+30
 max taucldi  3.7533973E-06
 max taucldw   38.80554    
 Switching is not necessary as we are already
 in the right domain!
 GIGC_Chunk_Run: Running for in-PET grid #           1
 GIGC_Chunk_Run: Received new grid IM, JM, LM =          14           9
          49
 =================================================
 W R F - G C   T I M E R S
    Domain           1 (Units: s)
 =================================================
  => Coupler Component                       1.304
   -- Physics & Parameterization             0.378
   -- Diagnostics Out                        0.000
  => GEOS-Chem Column                      170.798
  ===> Total Chemistry                     172.102
  => WRF                                   737.946
  ===> Total WRF-GC                        910.049
 max optd  4.5185168E+30
 max taucldi  3.8102457E-06
 max taucldw   39.07100    
 Switching is not necessary as we are already
 in the right domain!
 GIGC_Chunk_Run: Running for in-PET grid #           1
 GIGC_Chunk_Run: Received new grid IM, JM, LM =          14           9
          49
 =================================================
 W R F - G C   T I M E R S
    Domain           1 (Units: s)
 =================================================
  => Coupler Component                       1.341
   -- Physics & Parameterization             0.387
   -- Diagnostics Out                        0.000
  => GEOS-Chem Column                      171.760
  ===> Total Chemistry                     173.102
  => WRF                                   756.121
  ===> Total WRF-GC                        929.222
 max optd  4.5185168E+30
 max taucldi  3.8608118E-06
 max taucldw   39.10399    
 Switching is not necessary as we are already
 in the right domain!
 GIGC_Chunk_Run: Running for in-PET grid #           1
 GIGC_Chunk_Run: Received new grid IM, JM, LM =          14           9
          49
 =================================================
 W R F - G C   T I M E R S
    Domain           1 (Units: s)
 =================================================
  => Coupler Component                       1.377
   -- Physics & Parameterization             0.397
   -- Diagnostics Out                        0.000
  => GEOS-Chem Column                      172.735
  ===> Total Chemistry                     174.112
  => WRF                                   774.268
  ===> Total WRF-GC                        948.379
 max optd  4.5185168E+30
 max taucldi  3.9041311E-06
 max taucldw   38.79447    
 Switching is not necessary as we are already
 in the right domain!
 GIGC_Chunk_Run: Running for in-PET grid #           1
 GIGC_Chunk_Run: Received new grid IM, JM, LM =          14           9
          49
 =================================================
 W R F - G C   T I M E R S
    Domain           1 (Units: s)
 =================================================
  => Coupler Component                       1.414
   -- Physics & Parameterization             0.406
   -- Diagnostics Out                        0.000
  => GEOS-Chem Column                      173.699
  ===> Total Chemistry                     175.113
  => WRF                                   792.691
  ===> Total WRF-GC                        967.804
 max optd  4.5185168E+30
 max taucldi  8.7059088E-06
 max taucldw   39.12813    
 Switching is not necessary as we are already
 in the right domain!
 GIGC_Chunk_Run: Running for in-PET grid #           1
 GIGC_Chunk_Run: Received new grid IM, JM, LM =          14           9
          49
 =================================================
 W R F - G C   T I M E R S
    Domain           1 (Units: s)
 =================================================
  => Coupler Component                       1.449
   -- Physics & Parameterization             0.416
   -- Diagnostics Out                        0.000
  => GEOS-Chem Column                      174.653
  ===> Total Chemistry                     176.102
  => WRF                                   810.938
  ===> Total WRF-GC                        987.040
 max optd  4.5185168E+30
 max taucldi  1.4947977E-05
 max taucldw   39.34625    
 Switching is not necessary as we are already
 in the right domain!
 GIGC_Chunk_Run: Running for in-PET grid #           1
 GIGC_Chunk_Run: Received new grid IM, JM, LM =          14           9
          49
 =================================================
 W R F - G C   T I M E R S
    Domain           1 (Units: s)
 =================================================
  => Coupler Component                       1.487
   -- Physics & Parameterization             0.425
   -- Diagnostics Out                        0.000
  => GEOS-Chem Column                      175.619
  ===> Total Chemistry                     177.106
  => WRF                                   829.102
  ===> Total WRF-GC                       1006.208
 max optd  4.5185168E+30
 max taucldi  2.5756415E-05
 max taucldw   39.85826    
 Switching is not necessary as we are already
 in the right domain!
 GIGC_Chunk_Run: Running for in-PET grid #           1
 GIGC_Chunk_Run: Received new grid IM, JM, LM =          14           9
          49
 =================================================
 W R F - G C   T I M E R S
    Domain           1 (Units: s)
 =================================================
  => Coupler Component                       1.521
   -- Physics & Parameterization             0.435
   -- Diagnostics Out                        0.000
  => GEOS-Chem Column                      176.573
  ===> Total Chemistry                     178.094
  => WRF                                   847.388
  ===> Total WRF-GC                       1025.483
 max optd  4.5185168E+30
 max taucldi  4.0817165E-05
 max taucldw   39.63748    
 Switching is not necessary as we are already
 in the right domain!
 GIGC_Chunk_Run: Running for in-PET grid #           1
 GIGC_Chunk_Run: Received new grid IM, JM, LM =          14           9
          49
 =================================================
 W R F - G C   T I M E R S
    Domain           1 (Units: s)
 =================================================
  => Coupler Component                       1.550
   -- Physics & Parameterization             0.445
   -- Diagnostics Out                        0.000
  => GEOS-Chem Column                      177.523
  ===> Total Chemistry                     179.073
  => WRF                                   865.622
  ===> Total WRF-GC                       1044.696
 max optd  4.5185168E+30
 max taucldi  5.2963922E-05
 max taucldw   39.36554    
 Switching is not necessary as we are already
 in the right domain!
 GIGC_Chunk_Run: Running for in-PET grid #           1
 GIGC_Chunk_Run: Received new grid IM, JM, LM =          14           9
          49
 =================================================
 W R F - G C   T I M E R S
    Domain           1 (Units: s)
 =================================================
  => Coupler Component                       1.586
   -- Physics & Parameterization             0.455
   -- Diagnostics Out                        0.000
  => GEOS-Chem Column                      178.477
  ===> Total Chemistry                     180.063
  => WRF                                   883.834
  ===> Total WRF-GC                       1063.896
 max optd  4.5185168E+30
 max taucldi  5.0193848E-05
 max taucldw   39.79821    
 Switching is not necessary as we are already
 in the right domain!
 GIGC_Chunk_Run: Running for in-PET grid #           1
 GIGC_Chunk_Run: Received new grid IM, JM, LM =          14           9
          49
 =================================================
 W R F - G C   T I M E R S
    Domain           1 (Units: s)
 =================================================
  => Coupler Component                       1.618
   -- Physics & Parameterization             0.464
   -- Diagnostics Out                        0.000
  => GEOS-Chem Column                      179.425
  ===> Total Chemistry                     181.042
  => WRF                                   902.067
  ===> Total WRF-GC                       1083.109
 HOURLY EMISSIONS UPDATE TIME    14400.0       0.0
mediation_integrate: med_read_wrf_chem_emissions: Read emissions for time 2018-01-01_04:00:00
 max optd  4.5185168E+30
 max taucldi  3.5651425E-05
 max taucldw   40.05903    
 Switching is not necessary as we are already
 in the right domain!
 GIGC_Chunk_Run: Running for in-PET grid #           1
 GIGC_Chunk_Run: Received new grid IM, JM, LM =          14           9
          49
 =================================================
 W R F - G C   T I M E R S
    Domain           1 (Units: s)
 =================================================
  => Coupler Component                       1.653
   -- Physics & Parameterization             0.474
   -- Diagnostics Out                        0.000
  => GEOS-Chem Column                      180.385
  ===> Total Chemistry                     182.038
  => WRF                                   920.329
  ===> Total WRF-GC                       1102.367
 max optd  4.5185168E+30
 max taucldi  2.5495685E-05
 max taucldw   40.59649    
 Switching is not necessary as we are already
 in the right domain!
 GIGC_Chunk_Run: Running for in-PET grid #           1
 GIGC_Chunk_Run: Received new grid IM, JM, LM =          14           9
          49
 =================================================
 W R F - G C   T I M E R S
    Domain           1 (Units: s)
 =================================================
  => Coupler Component                       1.691
   -- Physics & Parameterization             0.484
   -- Diagnostics Out                        0.000
  => GEOS-Chem Column                      181.348
  ===> Total Chemistry                     183.039
  => WRF                                   938.560
  ===> Total WRF-GC                       1121.598
 max optd  4.5185168E+30
 max taucldi  1.7250466E-05
 max taucldw   40.81329    
 Switching is not necessary as we are already
 in the right domain!
 GIGC_Chunk_Run: Running for in-PET grid #           1
 GIGC_Chunk_Run: Received new grid IM, JM, LM =          14           9
          49
 =================================================
 W R F - G C   T I M E R S
    Domain           1 (Units: s)
 =================================================
  => Coupler Component                       1.724
   -- Physics & Parameterization             0.493
   -- Diagnostics Out                        0.000
  => GEOS-Chem Column                      182.299
  ===> Total Chemistry                     184.023
  => WRF                                   956.849
  ===> Total WRF-GC                       1140.872
 max optd  4.5185168E+30
 max taucldi  1.1949114E-05
 max taucldw   40.45478    
 Switching is not necessary as we are already
 in the right domain!
 GIGC_Chunk_Run: Running for in-PET grid #           1
 GIGC_Chunk_Run: Received new grid IM, JM, LM =          14           9
          49
 =================================================
 W R F - G C   T I M E R S
    Domain           1 (Units: s)
 =================================================
  => Coupler Component                       1.764
   -- Physics & Parameterization             0.503
   -- Diagnostics Out                        0.000
  => GEOS-Chem Column                      183.262
  ===> Total Chemistry                     185.025
  => WRF                                   975.103
  ===> Total WRF-GC                       1160.128
 max optd  4.5185168E+30
 max taucldi  7.4308991E-06
 max taucldw   40.36757    
 Switching is not necessary as we are already
 in the right domain!
 GIGC_Chunk_Run: Running for in-PET grid #           1
 GIGC_Chunk_Run: Received new grid IM, JM, LM =          14           9
          49
 =================================================
 W R F - G C   T I M E R S
    Domain           1 (Units: s)
 =================================================
  => Coupler Component                       1.794
   -- Physics & Parameterization             0.512
   -- Diagnostics Out                        0.000
  => GEOS-Chem Column                      184.211
  ===> Total Chemistry                     186.005
  => WRF                                   993.314
  ===> Total WRF-GC                       1179.319
 max optd  4.5185168E+30
 max taucldi  1.0861949E-05
 max taucldw   40.34868    
 Switching is not necessary as we are already
 in the right domain!
 GIGC_Chunk_Run: Running for in-PET grid #           1
 GIGC_Chunk_Run: Received new grid IM, JM, LM =          14           9
          49
 =================================================
 W R F - G C   T I M E R S
    Domain           1 (Units: s)
 =================================================
  => Coupler Component                       1.833
   -- Physics & Parameterization             0.522
   -- Diagnostics Out                        0.000
  => GEOS-Chem Column                      185.174
  ===> Total Chemistry                     187.007
  => WRF                                  1011.582
  ===> Total WRF-GC                       1198.589
 max optd  4.5185168E+30
 max taucldi  4.5687893E-06
 max taucldw   39.66600    
 Switching is not necessary as we are already
 in the right domain!
 GIGC_Chunk_Run: Running for in-PET grid #           1
 GIGC_Chunk_Run: Received new grid IM, JM, LM =          14           9
          49
 =================================================
 W R F - G C   T I M E R S
    Domain           1 (Units: s)
 =================================================
  => Coupler Component                       1.867
   -- Physics & Parameterization             0.531
   -- Diagnostics Out                        0.000
  => GEOS-Chem Column                      186.125
  ===> Total Chemistry                     187.992
  => WRF                                  1029.853
  ===> Total WRF-GC                       1217.845
 max optd  4.5185168E+30
 max taucldi  9.0474487E-06
 max taucldw   38.93446    
 Switching is not necessary as we are already
 in the right domain!
 GIGC_Chunk_Run: Running for in-PET grid #           1
 GIGC_Chunk_Run: Received new grid IM, JM, LM =          14           9
          49
 =================================================
 W R F - G C   T I M E R S
    Domain           1 (Units: s)
 =================================================
  => Coupler Component                       1.904
   -- Physics & Parameterization             0.541
   -- Diagnostics Out                        0.000
  => GEOS-Chem Column                      187.085
  ===> Total Chemistry                     188.989
  => WRF                                  1048.076
  ===> Total WRF-GC                       1237.065
 max optd  4.5185168E+30
 max taucldi  1.7086246E-05
 max taucldw   38.15676    
 Switching is not necessary as we are already
 in the right domain!
 GIGC_Chunk_Run: Running for in-PET grid #           1
 GIGC_Chunk_Run: Received new grid IM, JM, LM =          14           9
          49
 =================================================
 W R F - G C   T I M E R S
    Domain           1 (Units: s)
 =================================================
  => Coupler Component                       1.941
   -- Physics & Parameterization             0.550
   -- Diagnostics Out                        0.000
  => GEOS-Chem Column                      188.048
  ===> Total Chemistry                     189.989
  => WRF                                  1066.310
  ===> Total WRF-GC                       1256.299
 max optd  4.5185168E+30
 max taucldi  3.6383059E-05
 max taucldw   37.39364    
 Switching is not necessary as we are already
 in the right domain!
 GIGC_Chunk_Run: Running for in-PET grid #           1
 GIGC_Chunk_Run: Received new grid IM, JM, LM =          14           9
          49
 =================================================
 W R F - G C   T I M E R S
    Domain           1 (Units: s)
 =================================================
  => Coupler Component                       1.980
   -- Physics & Parameterization             0.560
   -- Diagnostics Out                        0.000
  => GEOS-Chem Column                      189.012
  ===> Total Chemistry                     190.992
  => WRF                                  1084.538
  ===> Total WRF-GC                       1275.530
 max optd  4.5185168E+30
 max taucldi  5.3137919E-05
 max taucldw   37.67379    
 Switching is not necessary as we are already
 in the right domain!
 GIGC_Chunk_Run: Running for in-PET grid #           1
 GIGC_Chunk_Run: Received new grid IM, JM, LM =          14           9
          49
 =================================================
 W R F - G C   T I M E R S
    Domain           1 (Units: s)
 =================================================
  => Coupler Component                       2.009
   -- Physics & Parameterization             0.570
   -- Diagnostics Out                        0.000
  => GEOS-Chem Column                      189.970
  ===> Total Chemistry                     191.979
  => WRF                                  1102.698
  ===> Total WRF-GC                       1294.677
 max optd  4.5185168E+30
 max taucldi  3.1252323E-05
 max taucldw   37.82380    
 Switching is not necessary as we are already
 in the right domain!
 GIGC_Chunk_Run: Running for in-PET grid #           1
 GIGC_Chunk_Run: Received new grid IM, JM, LM =          14           9
          49
 =================================================
 W R F - G C   T I M E R S
    Domain           1 (Units: s)
 =================================================
  => Coupler Component                       2.045
   -- Physics & Parameterization             0.580
   -- Diagnostics Out                        0.000
  => GEOS-Chem Column                      190.941
  ===> Total Chemistry                     192.987
  => WRF                                  1120.865
  ===> Total WRF-GC                       1313.852
 HOURLY EMISSIONS UPDATE TIME    18000.0       0.0
mediation_integrate: med_read_wrf_chem_emissions: Read emissions for time 2018-01-01_05:00:00
 max optd  4.5185168E+30
 max taucldi  2.2681234E-05
 max taucldw   37.93531    
 Switching is not necessary as we are already
 in the right domain!
 GIGC_Chunk_Run: Running for in-PET grid #           1
 GIGC_Chunk_Run: Received new grid IM, JM, LM =          14           9
          49
 =================================================
 W R F - G C   T I M E R S
    Domain           1 (Units: s)
 =================================================
  => Coupler Component                       2.084
   -- Physics & Parameterization             0.590
   -- Diagnostics Out                        0.000
  => GEOS-Chem Column                      191.906
  ===> Total Chemistry                     193.990
  => WRF                                  1139.117
  ===> Total WRF-GC                       1333.107
 max optd  4.5185168E+30
 max taucldi  2.5446801E-05
 max taucldw   38.21112    
 Switching is not necessary as we are already
 in the right domain!
 GIGC_Chunk_Run: Running for in-PET grid #           1
 GIGC_Chunk_Run: Received new grid IM, JM, LM =          14           9
          49
 =================================================
 W R F - G C   T I M E R S
    Domain           1 (Units: s)
 =================================================
  => Coupler Component                       2.119
   -- Physics & Parameterization             0.600
   -- Diagnostics Out                        0.000
  => GEOS-Chem Column                      192.865
  ===> Total Chemistry                     194.985
  => WRF                                  1157.308
  ===> Total WRF-GC                       1352.293
 max optd  4.5185168E+30
 max taucldi  2.5534462E-05
 max taucldw   38.23693    
 Switching is not necessary as we are already
 in the right domain!
 GIGC_Chunk_Run: Running for in-PET grid #           1
 GIGC_Chunk_Run: Received new grid IM, JM, LM =          14           9
          49
 =================================================
 W R F - G C   T I M E R S
    Domain           1 (Units: s)
 =================================================
  => Coupler Component                       2.156
   -- Physics & Parameterization             0.610
   -- Diagnostics Out                        0.000
  => GEOS-Chem Column                      193.832
  ===> Total Chemistry                     195.988
  => WRF                                  1175.495
  ===> Total WRF-GC                       1371.482
 max optd  4.5185168E+30
 max taucldi  1.0292564E-04
 max taucldw   38.51173    
 Switching is not necessary as we are already
 in the right domain!
 GIGC_Chunk_Run: Running for in-PET grid #           1
 GIGC_Chunk_Run: Received new grid IM, JM, LM =          14           9
          49
 =================================================
 W R F - G C   T I M E R S
    Domain           1 (Units: s)
 =================================================
  => Coupler Component                       2.194
   -- Physics & Parameterization             0.620
   -- Diagnostics Out                        0.000
  => GEOS-Chem Column                      194.793
  ===> Total Chemistry                     196.987
  => WRF                                  1193.723
  ===> Total WRF-GC                       1390.710
 max optd  4.5185168E+30
 max taucldi  2.5294552E-04
 max taucldw   38.34937    
 Switching is not necessary as we are already
 in the right domain!
 GIGC_Chunk_Run: Running for in-PET grid #           1
 GIGC_Chunk_Run: Received new grid IM, JM, LM =          14           9
          49
 =================================================
 W R F - G C   T I M E R S
    Domain           1 (Units: s)
 =================================================
  => Coupler Component                       2.233
   -- Physics & Parameterization             0.629
   -- Diagnostics Out                        0.000
  => GEOS-Chem Column                      195.756
  ===> Total Chemistry                     197.989
  => WRF                                  1211.991
  ===> Total WRF-GC                       1409.980
 max optd  4.5185168E+30
 max taucldi  3.7377825E-04
 max taucldw   38.22344    
 Switching is not necessary as we are already
 in the right domain!
 GIGC_Chunk_Run: Running for in-PET grid #           1
 GIGC_Chunk_Run: Received new grid IM, JM, LM =          14           9
          49
 =================================================
 W R F - G C   T I M E R S
    Domain           1 (Units: s)
 =================================================
  => Coupler Component                       2.269
   -- Physics & Parameterization             0.639
   -- Diagnostics Out                        0.000
  => GEOS-Chem Column                      196.721
  ===> Total Chemistry                     198.991
  => WRF                                  1230.164
  ===> Total WRF-GC                       1429.155
 max optd  4.5185168E+30
 max taucldi  4.5140358E-04
 max taucldw   38.22747    
 Switching is not necessary as we are already
 in the right domain!
 GIGC_Chunk_Run: Running for in-PET grid #           1
 GIGC_Chunk_Run: Received new grid IM, JM, LM =          14           9
          49
 =================================================
 W R F - G C   T I M E R S
    Domain           1 (Units: s)
 =================================================
  => Coupler Component                       2.302
   -- Physics & Parameterization             0.649
   -- Diagnostics Out                        0.000
  => GEOS-Chem Column                      197.685
  ===> Total Chemistry                     199.987
  => WRF                                  1248.443
  ===> Total WRF-GC                       1448.430
 max optd  4.5185168E+30
 max taucldi  5.1423808E-04
 max taucldw   38.16763    
 Switching is not necessary as we are already
 in the right domain!
 GIGC_Chunk_Run: Running for in-PET grid #           1
 GIGC_Chunk_Run: Received new grid IM, JM, LM =          14           9
          49
 =================================================
 W R F - G C   T I M E R S
    Domain           1 (Units: s)
 =================================================
  => Coupler Component                       2.340
   -- Physics & Parameterization             0.659
   -- Diagnostics Out                        0.000
  => GEOS-Chem Column                      198.650
  ===> Total Chemistry                     200.989
  => WRF                                  1266.646
  ===> Total WRF-GC                       1467.635
 max optd  4.5185168E+30
 max taucldi  5.8551523E-04
 max taucldw   38.14041    
 Switching is not necessary as we are already
 in the right domain!
 GIGC_Chunk_Run: Running for in-PET grid #           1
 GIGC_Chunk_Run: Received new grid IM, JM, LM =          14           9
          49
 =================================================
 W R F - G C   T I M E R S
    Domain           1 (Units: s)
 =================================================
  => Coupler Component                       2.377
   -- Physics & Parameterization             0.669
   -- Diagnostics Out                        0.000
  => GEOS-Chem Column                      199.621
  ===> Total Chemistry                     201.998
  => WRF                                  1284.905
  ===> Total WRF-GC                       1486.903
 max optd  4.5185168E+30
 max taucldi  6.6358049E-04
 max taucldw   38.08749    
 Switching is not necessary as we are already
 in the right domain!
 GIGC_Chunk_Run: Running for in-PET grid #           1
 GIGC_Chunk_Run: Received new grid IM, JM, LM =          14           9
          49
 =================================================
 W R F - G C   T I M E R S
    Domain           1 (Units: s)
 =================================================
  => Coupler Component                       2.414
   -- Physics & Parameterization             0.678
   -- Diagnostics Out                        0.000
  => GEOS-Chem Column                      200.583
  ===> Total Chemistry                     202.997
  => WRF                                  1303.381
  ===> Total WRF-GC                       1506.378
 max optd  4.5185168E+30
 max taucldi  7.4697798E-04
 max taucldw   38.08535    
 Switching is not necessary as we are already
 in the right domain!
 GIGC_Chunk_Run: Running for in-PET grid #           1
 GIGC_Chunk_Run: Received new grid IM, JM, LM =          14           9
          49
 =================================================
 W R F - G C   T I M E R S
    Domain           1 (Units: s)
 =================================================
  => Coupler Component                       2.450
   -- Physics & Parameterization             0.688
   -- Diagnostics Out                        0.000
  => GEOS-Chem Column                      201.549
  ===> Total Chemistry                     203.998
  => WRF                                  1321.609
  ===> Total WRF-GC                       1525.608
 max optd  4.5185168E+30
 max taucldi  1.3402686E-03
 max taucldw   38.19553    
 Switching is not necessary as we are already
 in the right domain!
 GIGC_Chunk_Run: Running for in-PET grid #           1
 GIGC_Chunk_Run: Received new grid IM, JM, LM =          14           9
          49
 =================================================
 W R F - G C   T I M E R S
    Domain           1 (Units: s)
 =================================================
  => Coupler Component                       2.487
   -- Physics & Parameterization             0.697
   -- Diagnostics Out                        0.000
  => GEOS-Chem Column                      202.514
  ===> Total Chemistry                     205.000
  => WRF                                  1339.828
  ===> Total WRF-GC                       1544.829
 HOURLY EMISSIONS UPDATE TIME    21600.0       0.0
mediation_integrate: med_read_wrf_chem_emissions: Read emissions for time 2018-01-01_06:00:00
 max optd  4.5185168E+30
 max taucldi  1.7012000E-03
 max taucldw   38.34348    
 Switching is not necessary as we are already
 in the right domain!
 GIGC_Chunk_Run: Running for in-PET grid #           1
 GIGC_Chunk_Run: Received new grid IM, JM, LM =          14           9
          49
 =================================================
 W R F - G C   T I M E R S
    Domain           1 (Units: s)
 =================================================
  => Coupler Component                       2.526
   -- Physics & Parameterization             0.707
   -- Diagnostics Out                        0.000
  => GEOS-Chem Column                      203.485
  ===> Total Chemistry                     206.011
  => WRF                                  1798.589
  ===> Total WRF-GC                       2004.601
 max optd  4.5185168E+30
 max taucldi  2.1180657E-03
 max taucldw   38.59878    
 Switching is not necessary as we are already
 in the right domain!
 GIGC_Chunk_Run: Running for in-PET grid #           1
 GIGC_Chunk_Run: Received new grid IM, JM, LM =          14           9
          49
 =================================================
 W R F - G C   T I M E R S
    Domain           1 (Units: s)
 =================================================
  => Coupler Component                       2.563
   -- Physics & Parameterization             0.717
   -- Diagnostics Out                        0.000
  => GEOS-Chem Column                      204.449
  ===> Total Chemistry                     207.012
  => WRF                                  1816.797
  ===> Total WRF-GC                       2023.809
 max optd  4.5185168E+30
 max taucldi  2.3612124E-03
 max taucldw   38.81213    
 Switching is not necessary as we are already
 in the right domain!
 GIGC_Chunk_Run: Running for in-PET grid #           1
 GIGC_Chunk_Run: Received new grid IM, JM, LM =          14           9
          49
 =================================================
 W R F - G C   T I M E R S
    Domain           1 (Units: s)
 =================================================
  => Coupler Component                       2.598
   -- Physics & Parameterization             0.727
   -- Diagnostics Out                        0.000
  => GEOS-Chem Column                      205.412
  ===> Total Chemistry                     208.010
  => WRF                                  1835.157
  ===> Total WRF-GC                       2043.167
 max optd  4.5185168E+30
 max taucldi  2.5152068E-03
 max taucldw   39.06337    
 Switching is not necessary as we are already
 in the right domain!
 GIGC_Chunk_Run: Running for in-PET grid #           1
 GIGC_Chunk_Run: Received new grid IM, JM, LM =          14           9
          49
 =================================================
 W R F - G C   T I M E R S
    Domain           1 (Units: s)
 =================================================
  => Coupler Component                       2.635
[...]
  => GEOS-Chem Column                      249.398
  ===> Total Chemistry                     253.547
  => WRF                                  2656.771
  ===> Total WRF-GC                       2910.319
 HOURLY EMISSIONS UPDATE TIME    36000.0       0.0
mediation_integrate: med_read_wrf_chem_emissions: Read emissions for time 2018-01-01_10:00:00
 max optd  4.5185168E+30
 max taucldi  6.1197374E-03
 max taucldw   38.89449    
 Switching is not necessary as we are already
 in the right domain!
 GIGC_Chunk_Run: Running for in-PET grid #           1
 GIGC_Chunk_Run: Received new grid IM, JM, LM =          14           9
          49
 =================================================
 W R F - G C   T I M E R S
    Domain           1 (Units: s)
 =================================================
  => Coupler Component                       4.182
   -- Physics & Parameterization             1.175
   -- Diagnostics Out                        0.000
  => GEOS-Chem Column                      250.377
  ===> Total Chemistry                     254.559
  => WRF                                  2675.082
  ===> Total WRF-GC                       2929.641
 max optd  4.5185168E+30
 max taucldi  8.2542654E-03
 max taucldw   39.27763    
 Switching is not necessary as we are already
 in the right domain!
 GIGC_Chunk_Run: Running for in-PET grid #           1
 GIGC_Chunk_Run: Received new grid IM, JM, LM =          14           9
          49
 =================================================
 W R F - G C   T I M E R S
    Domain           1 (Units: s)
 =================================================
  => Coupler Component                       4.213
   -- Physics & Parameterization             1.185
   -- Diagnostics Out                        0.000
  => GEOS-Chem Column                      251.364
  ===> Total Chemistry                     255.577
  => WRF                                  2693.325
  ===> Total WRF-GC                       2948.902
 max optd  4.5185168E+30
 max taucldi  9.9561699E-03
 max taucldw   39.62600    
 Switching is not necessary as we are already
 in the right domain!
 GIGC_Chunk_Run: Running for in-PET grid #           1
 GIGC_Chunk_Run: Received new grid IM, JM, LM =          14           9
          49
 =================================================
 W R F - G C   T I M E R S
    Domain           1 (Units: s)
 =================================================
  => Coupler Component                       4.250
   -- Physics & Parameterization             1.195
   -- Diagnostics Out                        0.000
  => GEOS-Chem Column                      252.340
  ===> Total Chemistry                     256.589
  => WRF                                  2711.537
  ===> Total WRF-GC                       2968.126
 max optd  4.5185168E+30
 max taucldi  1.1434755E-02
 max taucldw   39.80231    
 Switching is not necessary as we are already
 in the right domain!
 GIGC_Chunk_Run: Running for in-PET grid #           1
 GIGC_Chunk_Run: Received new grid IM, JM, LM =          14           9
          49
 =================================================
 W R F - G C   T I M E R S
    Domain           1 (Units: s)
 =================================================
  => Coupler Component                       4.279
   -- Physics & Parameterization             1.205
   -- Diagnostics Out                        0.000
  => GEOS-Chem Column                      253.331
  ===> Total Chemistry                     257.610
  => WRF                                  2729.855
  ===> Total WRF-GC                       2987.465
 max optd  4.5185168E+30
 max taucldi  1.2857080E-02
 max taucldw   39.81997    
 Switching is not necessary as we are already
 in the right domain!
 GIGC_Chunk_Run: Running for in-PET grid #           1
 GIGC_Chunk_Run: Received new grid IM, JM, LM =          14           9
          49
 =================================================
 W R F - G C   T I M E R S
    Domain           1 (Units: s)
 =================================================
  => Coupler Component                       4.309
   -- Physics & Parameterization             1.215
   -- Diagnostics Out                        0.000
  => GEOS-Chem Column                      254.323
  ===> Total Chemistry                     258.632
  => WRF                                  2748.110
  ===> Total WRF-GC                       3006.742
 max optd  4.5185168E+30
 max taucldi  1.4174958E-02
 max taucldw   39.88908    
 Switching is not necessary as we are already
 in the right domain!
 GIGC_Chunk_Run: Running for in-PET grid #           1
 GIGC_Chunk_Run: Received new grid IM, JM, LM =          14           9
          49
 =================================================
 W R F - G C   T I M E R S
    Domain           1 (Units: s)
 =================================================
  => Coupler Component                       4.342
   -- Physics & Parameterization             1.225
   -- Diagnostics Out                        0.000
  => GEOS-Chem Column                      255.305
  ===> Total Chemistry                     259.647
  => WRF                                  2766.251
  ===> Total WRF-GC                       3025.898
 max optd  4.5185168E+30
 max taucldi  1.4990476E-02
 max taucldw   39.50802    
 Switching is not necessary as we are already
 in the right domain!
 GIGC_Chunk_Run: Running for in-PET grid #           1
 GIGC_Chunk_Run: Received new grid IM, JM, LM =          14           9
          49
 =================================================
 W R F - G C   T I M E R S
    Domain           1 (Units: s)
 =================================================
  => Coupler Component                       4.371
   -- Physics & Parameterization             1.235
   -- Diagnostics Out                        0.000
  => GEOS-Chem Column                      256.296
  ===> Total Chemistry                     260.666
  => WRF                                  2784.535
  ===> Total WRF-GC                       3045.201
 max optd  4.5185168E+30
 max taucldi  1.5550248E-02
 max taucldw   39.39331    
 Switching is not necessary as we are already
 in the right domain!
 GIGC_Chunk_Run: Running for in-PET grid #           1
 GIGC_Chunk_Run: Received new grid IM, JM, LM =          14           9
          49
 =================================================
 W R F - G C   T I M E R S
    Domain           1 (Units: s)
 =================================================
  => Coupler Component                       4.403
   -- Physics & Parameterization             1.244
   -- Diagnostics Out                        0.000
  => GEOS-Chem Column                      257.281
  ===> Total Chemistry                     261.684
  => WRF                                  2802.775
  ===> Total WRF-GC                       3064.459
 max optd  4.5185168E+30
 max taucldi  1.6017925E-02
 max taucldw   39.56446    
 Switching is not necessary as we are already
 in the right domain!
 GIGC_Chunk_Run: Running for in-PET grid #           1
 GIGC_Chunk_Run: Received new grid IM, JM, LM =          14           9
          49
 =================================================
 W R F - G C   T I M E R S
    Domain           1 (Units: s)
 =================================================
  => Coupler Component                       4.433
   -- Physics & Parameterization             1.254
   -- Diagnostics Out                        0.000
  => GEOS-Chem Column                      258.270
  ===> Total Chemistry                     262.703
  => WRF                                  2820.981
  ===> Total WRF-GC                       3083.684
 max optd  4.5185168E+30
 max taucldi  1.6450301E-02
 max taucldw   39.25474    
 Switching is not necessary as we are already
 in the right domain!
 GIGC_Chunk_Run: Running for in-PET grid #           1
 GIGC_Chunk_Run: Received new grid IM, JM, LM =          14           9
          49
 =================================================
 W R F - G C   T I M E R S
    Domain           1 (Units: s)
 =================================================
  => Coupler Component                       4.461
   -- Physics & Parameterization             1.263
   -- Diagnostics Out                        0.000
  => GEOS-Chem Column                      259.265
  ===> Total Chemistry                     263.727
  => WRF                                  2839.263
  ===> Total WRF-GC                       3102.990
 max optd  4.5185168E+30
 max taucldi  1.7044572E-02
 max taucldw   38.90087    
 Switching is not necessary as we are already
 in the right domain!
 GIGC_Chunk_Run: Running for in-PET grid #           1
 GIGC_Chunk_Run: Received new grid IM, JM, LM =          14           9
          49
 =================================================
 W R F - G C   T I M E R S
    Domain           1 (Units: s)
 =================================================
  => Coupler Component                       4.491
   -- Physics & Parameterization             1.273
   -- Diagnostics Out                        0.000
  => GEOS-Chem Column                      260.260
  ===> Total Chemistry                     264.751
  => WRF                                  2857.478
  ===> Total WRF-GC                       3122.229
 max optd  4.5185168E+30
 max taucldi  1.8001996E-02
 max taucldw   38.61309    
 Switching is not necessary as we are already
 in the right domain!
 GIGC_Chunk_Run: Running for in-PET grid #           1
 GIGC_Chunk_Run: Received new grid IM, JM, LM =          14           9
          49
 =================================================
 W R F - G C   T I M E R S
    Domain           1 (Units: s)
 =================================================
  => Coupler Component                       4.520
   -- Physics & Parameterization             1.283
   -- Diagnostics Out                        0.000
  => GEOS-Chem Column                      261.254
  ===> Total Chemistry                     265.774
  => WRF                                  2875.747
  ===> Total WRF-GC                       3141.521
 HOURLY EMISSIONS UPDATE TIME    39600.0       0.0
mediation_integrate: med_read_wrf_chem_emissions: Read emissions for time 2018-01-01_11:00:00
 max optd  4.5185168E+30
 max taucldi  1.8886423E-02
 max taucldw   38.26821    
 Switching is not necessary as we are already
 in the right domain!
 GIGC_Chunk_Run: Running for in-PET grid #           1
 GIGC_Chunk_Run: Received new grid IM, JM, LM =          14           9
          49
 =================================================
 W R F - G C   T I M E R S
    Domain           1 (Units: s)
 =================================================
  => Coupler Component                       4.552
   -- Physics & Parameterization             1.292
   -- Diagnostics Out                        0.000
  => GEOS-Chem Column                      262.239
  ===> Total Chemistry                     266.791
  => WRF                                  2894.000
  ===> Total WRF-GC                       3160.791
 max optd  4.5185168E+30
 max taucldi  1.9373765E-02
 max taucldw   37.84159    
 Switching is not necessary as we are already
 in the right domain!
 GIGC_Chunk_Run: Running for in-PET grid #           1
 GIGC_Chunk_Run: Received new grid IM, JM, LM =          14           9
          49
 =================================================
 W R F - G C   T I M E R S
    Domain           1 (Units: s)
 =================================================
  => Coupler Component                       4.587
   -- Physics & Parameterization             1.302
   -- Diagnostics Out                        0.000
  => GEOS-Chem Column                      263.221
  ===> Total Chemistry                     267.809
  => WRF                                  2912.206
  ===> Total WRF-GC                       3180.014
 max optd  4.5185168E+30
 max taucldi  1.9507250E-02
 max taucldw   37.25294    
 Switching is not necessary as we are already
 in the right domain!
 GIGC_Chunk_Run: Running for in-PET grid #           1
 GIGC_Chunk_Run: Received new grid IM, JM, LM =          14           9
          49
 =================================================
 W R F - G C   T I M E R S
    Domain           1 (Units: s)
 =================================================
  => Coupler Component                       4.622
   -- Physics & Parameterization             1.311
   -- Diagnostics Out                        0.000
  => GEOS-Chem Column                      264.202
  ===> Total Chemistry                     268.824
  => WRF                                  2930.509
  ===> Total WRF-GC                       3199.333
 max optd  4.5185168E+30
 max taucldi  1.9527486E-02
 max taucldw   36.76992    
 Switching is not necessary as we are already
 in the right domain!
 GIGC_Chunk_Run: Running for in-PET grid #           1
 GIGC_Chunk_Run: Received new grid IM, JM, LM =          14           9
          49
 =================================================
 W R F - G C   T I M E R S
    Domain           1 (Units: s)
 =================================================
  => Coupler Component                       4.653
   -- Physics & Parameterization             1.321
   -- Diagnostics Out                        0.000
  => GEOS-Chem Column                      265.187
  ===> Total Chemistry                     269.841
  => WRF                                  2948.873
  ===> Total WRF-GC                       3218.714
 max optd  4.5185168E+30
 max taucldi  1.9498369E-02
 max taucldw   36.22330    
 Switching is not necessary as we are already
 in the right domain!
 GIGC_Chunk_Run: Running for in-PET grid #           1
 GIGC_Chunk_Run: Received new grid IM, JM, LM =          14           9
          49
 =================================================
 W R F - G C   T I M E R S
    Domain           1 (Units: s)
 =================================================
  => Coupler Component                       4.686
   -- Physics & Parameterization             1.331
   -- Diagnostics Out                        0.000
  => GEOS-Chem Column                      266.173
  ===> Total Chemistry                     270.859
  => WRF                                  2967.359
  ===> Total WRF-GC                       3238.219
 max optd  4.5185168E+30
 max taucldi  1.9273732E-02
 max taucldw   35.64994    
 Switching is not necessary as we are already
 in the right domain!
 GIGC_Chunk_Run: Running for in-PET grid #           1
 GIGC_Chunk_Run: Received new grid IM, JM, LM =          14           9
          49
 =================================================
 W R F - G C   T I M E R S
    Domain           1 (Units: s)
 =================================================
  => Coupler Component                       4.718
   -- Physics & Parameterization             1.340
   -- Diagnostics Out                        0.000
  => GEOS-Chem Column                      267.160
  ===> Total Chemistry                     271.879
  => WRF                                  2985.832
  ===> Total WRF-GC                       3257.710
 max optd  4.5185168E+30
 max taucldi  1.8923499E-02
 max taucldw   35.18067    
 Switching is not necessary as we are already
 in the right domain!
 GIGC_Chunk_Run: Running for in-PET grid #           1
 GIGC_Chunk_Run: Received new grid IM, JM, LM =          14           9
          49
 =================================================
 W R F - G C   T I M E R S
    Domain           1 (Units: s)
 =================================================
  => Coupler Component                       4.749
   -- Physics & Parameterization             1.350
   -- Diagnostics Out                        0.000
  => GEOS-Chem Column                      268.149
  ===> Total Chemistry                     272.898
  => WRF                                  3004.444
  ===> Total WRF-GC                       3277.342
 max optd  4.5185168E+30
 max taucldi  1.8478479E-02
 max taucldw   35.14590    
 Switching is not necessary as we are already
 in the right domain!
 GIGC_Chunk_Run: Running for in-PET grid #           1
 GIGC_Chunk_Run: Received new grid IM, JM, LM =          14           9
          49
 =================================================
 W R F - G C   T I M E R S
    Domain           1 (Units: s)
 =================================================
  => Coupler Component                       4.778
   -- Physics & Parameterization             1.360
   -- Diagnostics Out                        0.000
  => GEOS-Chem Column                      269.146
  ===> Total Chemistry                     273.924
  => WRF                                  3023.105
  ===> Total WRF-GC                       3297.029
 max optd  4.5185168E+30
 max taucldi  1.8105393E-02
 max taucldw   34.91422    
 Switching is not necessary as we are already
 in the right domain!
 GIGC_Chunk_Run: Running for in-PET grid #           1
 GIGC_Chunk_Run: Received new grid IM, JM, LM =          14           9
          49
 =================================================
 W R F - G C   T I M E R S
    Domain           1 (Units: s)
 =================================================
  => Coupler Component                       4.811
   -- Physics & Parameterization             1.370
   -- Diagnostics Out                        0.000
  => GEOS-Chem Column                      270.130
  ===> Total Chemistry                     274.940
  => WRF                                  3041.820
  ===> Total WRF-GC                       3316.760
 max optd  4.5185168E+30
 max taucldi  1.7485393E-02
 max taucldw   34.71612    
 Switching is not necessary as we are already
 in the right domain!
 GIGC_Chunk_Run: Running for in-PET grid #           1
 GIGC_Chunk_Run: Received new grid IM, JM, LM =          14           9
          49
 =================================================
 W R F - G C   T I M E R S
    Domain           1 (Units: s)
 =================================================
  => Coupler Component                       4.843
   -- Physics & Parameterization             1.380
   -- Diagnostics Out                        0.000
  => GEOS-Chem Column                      271.117
  ===> Total Chemistry                     275.960
  => WRF                                  3060.819
  ===> Total WRF-GC                       3336.779
 max optd  4.5185168E+30
 max taucldi  1.6953027E-02
 max taucldw   34.28284    
 Switching is not necessary as we are already
 in the right domain!
 GIGC_Chunk_Run: Running for in-PET grid #           1
 GIGC_Chunk_Run: Received new grid IM, JM, LM =          14           9
          49
 =================================================
 W R F - G C   T I M E R S
    Domain           1 (Units: s)
 =================================================
  => Coupler Component                       4.878
   -- Physics & Parameterization             1.390
   -- Diagnostics Out                        0.000
  => GEOS-Chem Column                      272.102
  ===> Total Chemistry                     276.980
  => WRF                                  3079.675
  ===> Total WRF-GC                       3356.655
 max optd  4.5185168E+30
 max taucldi  1.6545128E-02
 max taucldw   33.46754    
 Switching is not necessary as we are already
 in the right domain!
 GIGC_Chunk_Run: Running for in-PET grid #           1
 GIGC_Chunk_Run: Received new grid IM, JM, LM =          14           9
          49
 =================================================
 W R F - G C   T I M E R S
    Domain           1 (Units: s)
 =================================================
  => Coupler Component                       4.906
   -- Physics & Parameterization             1.400
   -- Diagnostics Out                        0.000
  => GEOS-Chem Column                      273.093
  ===> Total Chemistry                     277.999
  => WRF                                  3098.508
  ===> Total WRF-GC                       3376.507
d01 2018-01-01_12:00:00 wrf: SUCCESS COMPLETE WRF
