taskid: 3231 hostname: ip-172-31-11-63
Quilting with   1 groups of   0 I/O tasks.
 Ntasks in X           64 , ntasks in Y           72
--- WARNING: traj_opt is zero, but num_traj is not zero; setting num_traj to zero.
--- NOTE: sst_update is 0, setting io_form_auxinput4 = 0 and auxinput4_interval = 0 for all domains
--- NOTE: grid_fdda is 0 for domain      1, setting gfdda interval and ending time to 0 for that domain.
--- NOTE: both grid_sfdda and pxlsm_soil_nudge are 0 for domain      1, setting sgfdda interval and ending time to 0 for that domain.
--- NOTE: obs_nudge_opt is 0 for domain      1, setting obs nudging interval and ending time to 0 for that domain.
--- NOTE: bl_pbl_physics /= 4, implies mfshconv must be 0, resetting
Need MYNN PBL for icloud_bl = 1, resetting to 0
*************************************
No physics suite selected.
Physics options will be used directly from the namelist.
*************************************
--- NOTE: RRTMG radiation is in use, setting:  levsiz=59, alevsiz=12, no_src_types=6
--- NOTE: num_soil_layers has been set to      4
WRF V3.9.1.1 MODEL
 *************************************
 Parent domain
 ids,ide,jds,jde            1         950           1         650
 ims,ime,jms,jme          455         482         445         467
 ips,ipe,jps,jpe          462         475         452         460
 *************************************
DYNAMICS OPTION: Eulerian Mass Coordinate
   alloc_space_field: domain            1 ,              197508740  bytes allocated
  med_initialdata_input: calling input_input
Max map factor in domain 1 =  1.40. Scale the dt in the model accordingly.
INPUT LandUse = "USGS"
 LANDUSE TYPE = "USGS" FOUND          33  CATEGORIES           2  SEASONS WATER CATEGORY =           16  SNOW CATEGORY =           24
INITIALIZE THREE Noah LSM RELATED TABLES
*****************************************************************
  __          _______  ______       _____  _____ _    _ _____
  \ \        / /  __ \|  ____|     / ____|/ ____| |  | |  __ \
   \ \  /\  / /| |__) | |__ ______| |  __| |    | |__| | |__) |
    \ \/  \/ / |  _  /|  __|______| | |_ | |    |  __  |  ___/
     \  /\  /  | | \ \| |         | |__| | |____| |  | | |
      \/  \/   |_|  \_\_|          \_____|\_____|_|  |_|_|
*****************************************************************
         WRF-GC MODEL, VERSION 1811.11 - WRF BINDINGS
 For errors, suggestions & feedback email linhaipeng@pku.edu.cn
*****************************************************************
    This is domain            1
 ### GIGC_Stateful_Mod: Root CPU, after READ_INPUT_FILE
  Linoz Data:  O3 climatology :                  z*=10, 12, ..., 58                             2.700E-08 1.083E-05
  Linoz Data:  Temperature climatology :         z*=10, 12, ..., 58                             1.859E+02 2.904E+02
  Linoz Data:  Column O3 above box climalology : z*=10, 12, ..., 58                             7.538E-02 3.770E+02
  Linoz Data:  P-L O3 climatology (mr/s):        z*=10, 12, ..., 58                            -1.590E-10 2.835E-11
  Linoz Data:  d(P-L)/dO3 (1/s) :                z*=10, 12, ..., 58                            -8.386E-04 7.556E-09
  Linoz Data:  d(P-L)/dT (mr/K) :                z*=10, 12, ..., 58                            -5.742E-12 4.615E-14
  Linoz Data:  d(P-L)/d(column O3) (mr/DU) :     z*=10, 12, ..., 58                            -1.921E-12 5.038E-10
 ### GIGC_Stateful_Mod: Root CPU, after LINOZ_READ
 %%%%%%%%% GIGC IN-PET GRID SWITCHING HACKS %%%%%%%%%
     (Not very) Proudly brought to you by hplin      
 Some debug information:
 ID:           1
 IM, JM, LM:          14           9          49  will be set as PAR
 Allocs: CMN T GC F
 RC at entry-point:           0
 %%%%%%%%%%%%%%%%%%%%%%%%%%%%%%%%%%%%%%%%%%%%%%%%%%%%
 No need to switch HcoState for ID           1
 Exit RC:            0
 %%%%%%%%%    FINISHED GIGC_Switch_Dims    %%%%%%%%%
 GIGC_Chunk_Init: Received new grid IM, JM, LM =          14           9
          49
     ### GIGC_INIT_SIMULATION: after Input_Opt% setups
     ### GIGC_INIT_SIMULATION: after GC_Init_All
     ### GIGC_INIT_SIMULATION: after GC_Init_Extra
     ### GIGC_INIT_SIMULATION: after INIT_FJX
 # GIGC_CHUNK_MOD: after SV save, ID =           1
 WRFGC chemics_init: Following information regarding Input_Opt% (for all doms)
 After domain           1
 HPC:  T
 LPRT:  F
 DoConv:  T
 DoDryDep:  T
 DoEmis:  T
 DoChem:  T
 DoTurb:  T
 DoWetDep:  T

 tropopause_init: DONE intialized domain            1

 mediation_integrate: med_read_wrf_chem_emissions: Open file wrfchemi_00z_d01
 HOURLY EMISSIONS UPDATE TIME        0.0       0.0
mediation_integrate: med_read_wrf_chem_emissions: Read emissions for time 2018-01-01_00:00:00
open_aux_u : error opening wrffirechemi_d01_2018-01-01_00:00:00 for reading. 100
open_aux_u : error opening wrfchemi_gocart_bg_d01 for reading. 100
d01 2018-01-01_00:00:00 Input data processed for aux input   8 for domain   1
open_aux_u : error opening wrfchemv_d01 for reading. 100
 Tile Strategy is not specified. Assuming 1D-Y
WRF TILE   1 IS    462 IE    475 JS    452 JE    460
WRF NUMBER OF TILES =   1
 max optd  6.8834073E+11
 max taucldi  3.0628017E+11
 max taucldw  0.0000000E+00
 =================================================
 W R F - G C   T I M E R S
    Domain           1 (Units: s)
 =================================================
  => Coupler Component                       0.032
   -- Physics & Parameterization             0.001
   -- Diagnostics Out                        0.000
  => GEOS-Chem Column                        0.000
  ===> Total Chemistry                       0.032
  => WRF                                     0.000
  ===> Total WRF-GC                          0.032
 max optd  6.8834073E+11
 max taucldi  3.0628017E+11
 max taucldw  1.0000006E-14
 %%%%%%%%% GIGC IN-PET GRID SWITCHING HACKS %%%%%%%%%
     (Not very) Proudly brought to you by hplin      
 Some debug information:
 ID:           1
 IM, JM, LM:          14           9          49  will be set as PAR
 Allocs: CMN T GC T
 RC at entry-point:           0
 %%%%%%%%%%%%%%%%%%%%%%%%%%%%%%%%%%%%%%%%%%%%%%%%%%%%
 No need to switch HcoState for ID           1
 Debug HcoState nSpc, NX, NY, NZ         163          14           9          49
 Exit RC:            0
 %%%%%%%%%    FINISHED GIGC_Switch_Dims    %%%%%%%%%
 GIGC_Chunk_Run: Running for in-PET grid #           1
 GIGC_Chunk_Run: Received new grid IM, JM, LM =          14           9
          49
HEMCO: Opening /fsx/HEMCO/BIOFUEL/v2014-07/biofuel.geos.4x5.nc
HEMCO: Opening /fsx/HEMCO/BROMINE/v2015-02/Bromocarb_Liang2010.nc
HEMCO: Opening /fsx/HEMCO/ACET/v2014-07/ACET_seawater.generic.1x1.nc
HEMCO: Opening /fsx/HEMCO/SOILNOX/v2014-07/DepReservoirDefault.nc
HEMCO: Opening /fsx/HEMCO/SOILNOX/v2014-07/soilNOx.landtype.generic.025x025.1L.nc
HEMCO: Opening /fsx/HEMCO/SOILNOX/v2014-07/soilNOx.climate.generic.05x05.nc
HEMCO: Opening /fsx/HEMCO/DUST_DEAD/v2014-07/dst_tibds.geos.4x5.nc
HEMCO: Opening /fsx/HEMCO/DUST_DEAD/v2014-07/GOCART_src_fn.geos.4x5.nc
HEMCO: Opening /fsx/HEMCO/MEGAN/v2018-05/MEGAN2.1_EF.geos.025x03125.nc
HEMCO: Opening /fsx/HEMCO/MEGAN/v2017-07/CLM4_PFT.geos.025x03125.nc
HEMCO: Opening /fsx/HEMCO/TIMEZONES/v2015-02/timezones_voronoi_1x1.nc
HEMCO: Opening /fsx/HEMCO/STRAT/v2015-01/Bry/GEOSCCM_Bry.200701.day.nc
HEMCO: Opening /fsx/HEMCO/STRAT/v2015-01/Bry/GEOSCCM_Bry.200701.night.nc
HEMCO: Opening /fsx/HEMCO/OMOC/v2018-01/OMOC.DJF.01x01.nc
HEMCO: Opening /fsx/HEMCO/OMOC/v2018-01/OMOC.MAM.01x01.nc
HEMCO: Opening /fsx/HEMCO/OMOC/v2018-01/OMOC.JJA.01x01.nc
HEMCO: Opening /fsx/HEMCO/OMOC/v2018-01/OMOC.SON.01x01.nc
HEMCO: Opening /fsx/HEMCO/AnnualScalar/v2014-07/AnnualScalar.geos.1x1.nc
HEMCO: Opening /fsx/HEMCO/EDGARv42/v2015-02/NO/EDGAR_hourly_NOxScal.nc
HEMCO: Opening /fsx/HEMCO/MASKS/v2018-09/EMEP_mask.geos.1x1.20151222.nc
HEMCO: Opening /fsx/HEMCO/MASKS/v2018-09/Canada_mask.geos.1x1.nc
HEMCO: Opening /fsx/HEMCO/MASKS/v2018-09/SE_Asia_mask.generic.1x1.nc
HEMCO: Opening /fsx/HEMCO/MASKS/v2018-09/MIX_Asia_mask.generic.025x025.nc
HEMCO: Opening /fsx/HEMCO/MASKS/v2018-09/CONUS_Mask.01x01.nc
HEMCO: Opening /fsx/HEMCO/MASKS/v2018-09/AF_LANDMASK.geos.05x0666.global.nc
HEMCO: Opening /fsx/HEMCO/MASKS/v2018-09/China_mask.generic.1x1.nc
HEMCO: Opening /fsx/HEMCO/MASKS/v2018-09/India_mask.generic.1x1.nc
HEMCO: Opening /fsx/HEMCO/AnnualScalar/v2014-07/AnnualScalar.geos.1x1.nc
HEMCO: Opening /fsx/HEMCO/NH3/v2014-07/NH3_geos.4x5.nc
HEMCO: Opening /fsx/HEMCO/NH3/v2018-04/NH3_Arctic_seabirds.nc
HEMCO: Opening /fsx/HEMCO/CEDS/v2018-08/2014/NO-em-anthro_CMIP_CEDS_2014.nc
HEMCO: Opening /fsx/HEMCO/CEDS/v2018-08/2014/CO-em-anthro_CMIP_CEDS_2014.nc
HEMCO: Opening /fsx/HEMCO/CEDS/v2018-08/2014/SO2-em-anthro_CMIP_CEDS_2014.nc
HEMCO: Opening /fsx/HEMCO/CEDS/v2018-08/2014/NH3-em-anthro_CMIP_CEDS_2014.nc
HEMCO: Opening /fsx/HEMCO/CEDS/v2018-08/2014/BC-em-anthro_CMIP_CEDS_2014.nc
HEMCO: Opening /fsx/HEMCO/CEDS/v2018-08/2014/OC-em-anthro_CMIP_CEDS_2014.nc
HEMCO: Opening /fsx/HEMCO/CEDS/v2018-08/2014/EOH-em-anthro_CMIP_CEDS_2014.nc
HEMCO: Opening /fsx/HEMCO/CEDS/v2018-08/2014/C2H6-em-anthro_CMIP_CEDS_2014.nc
HEMCO: Opening /fsx/HEMCO/CEDS/v2018-08/2014/C3H8-em-anthro_CMIP_CEDS_2014.nc
HEMCO: Opening /fsx/HEMCO/CEDS/v2018-08/2014/ALK4_butanes-em-anthro_CMIP_CEDS_2014.nc
HEMCO: Opening /fsx/HEMCO/CEDS/v2018-08/2014/ALK4_pentanes-em-anthro_CMIP_CEDS_2014.nc
HEMCO: Opening /fsx/HEMCO/CEDS/v2018-08/2014/ALK4_hexanes-em-anthro_CMIP_CEDS_2014.nc
HEMCO: Opening /fsx/HEMCO/CEDS/v2018-08/2014/PRPE-em-anthro_CMIP_CEDS_2014.nc
HEMCO: Opening /fsx/HEMCO/CEDS/v2018-08/2014/BENZ-em-anthro_CMIP_CEDS_2014.nc
HEMCO: Opening /fsx/HEMCO/CEDS/v2018-08/2014/TOLU-em-anthro_CMIP_CEDS_2014.nc
HEMCO: Opening /fsx/HEMCO/CEDS/v2018-08/2014/XYLE-em-anthro_CMIP_CEDS_2014.nc
HEMCO: Opening /fsx/HEMCO/CEDS/v2018-08/2014/CH2O-em-anthro_CMIP_CEDS_2014.nc
HEMCO: Opening /fsx/HEMCO/CEDS/v2018-08/2014/ALD2-em-anthro_CMIP_CEDS_2014.nc
HEMCO: Opening /fsx/HEMCO/CEDS/v2018-08/2014/MEK-em-anthro_CMIP_CEDS_2014.nc
HEMCO: Opening /fsx/HEMCO/CEDS/v2018-08/2014/HCOOH-em-anthro_CMIP_CEDS_2014.nc
HEMCO: Opening /fsx/HEMCO/C2H6_2010/v2017-05/C2H6_global_anth_biof.201001.nc
HEMCO: Opening /fsx/HEMCO/NEI2011/v2017-02-MM/01/NEI11_0.1x0.1_201101_monmean.nc
HEMCO: Opening /fsx/HEMCO/NEI2011/v2017-02-MM/01/NEI11_0.1x0.1_201101_monmean_egu.nc
HEMCO: Opening /fsx/HEMCO/NEI2011/v2017-02-MM/01/NEI11_0.1x0.1_201101_monmean_egupk.nc
HEMCO: Opening /fsx/HEMCO/NEI2011/v2017-02-MM/01/NEI11_0.1x0.1_201101_monmean_oilgas.nc
HEMCO: Opening /fsx/HEMCO/NEI2011/v2017-02-MM/01/NEI11_0.1x0.1_201101_monmean_othpt.nc
HEMCO: Opening /fsx/HEMCO/NEI2011/v2017-02-MM/01/NEI11_0.1x0.1_201101_monmean_ptnonipm.nc
HEMCO: Opening /fsx/HEMCO/IODINE/v2017-09/CH3I_monthly_emissions_Ordonez_2012_COARDS.nc
HEMCO: Opening /fsx/HEMCO/IODINE/v2017-09/CH2I2_monthly_emissions_Ordonez_2012_COARDS.nc
HEMCO: Opening /fsx/HEMCO/IODINE/v2017-09/CH2ICl_monthly_emissions_Ordonez_2012_COARDS.nc
HEMCO: Opening /fsx/HEMCO/IODINE/v2017-09/CH2IBr_monthly_emissions_Ordonez_2012_COARDS.nc
HEMCO: Opening /fsx/HEMCO/CEDS/v2018-08/2014/CO-em-anthro_CMIP_CEDS_2014.nc
HEMCO: Opening /fsx/HEMCO/CEDS/v2018-08/2014/SO2-em-anthro_CMIP_CEDS_2014.nc
HEMCO: Opening /fsx/HEMCO/CEDS/v2018-08/2014/NH3-em-anthro_CMIP_CEDS_2014.nc
HEMCO: Opening /fsx/HEMCO/CEDS/v2018-08/2014/BC-em-anthro_CMIP_CEDS_2014.nc
HEMCO: Opening /fsx/HEMCO/CEDS/v2018-08/2014/OC-em-anthro_CMIP_CEDS_2014.nc
HEMCO: Opening /fsx/HEMCO/CEDS/v2018-08/2014/EOH-em-anthro_CMIP_CEDS_2014.nc
HEMCO: Opening /fsx/HEMCO/CEDS/v2018-08/2014/C2H6-em-anthro_CMIP_CEDS_2014.nc
HEMCO: Opening /fsx/HEMCO/CEDS/v2018-08/2014/C3H8-em-anthro_CMIP_CEDS_2014.nc
HEMCO: Opening /fsx/HEMCO/CEDS/v2018-08/2014/ALK4_butanes-em-anthro_CMIP_CEDS_2014.nc
HEMCO: Opening /fsx/HEMCO/CEDS/v2018-08/2014/ALK4_pentanes-em-anthro_CMIP_CEDS_2014.nc
HEMCO: Opening /fsx/HEMCO/CEDS/v2018-08/2014/ALK4_hexanes-em-anthro_CMIP_CEDS_2014.nc
HEMCO: Opening /fsx/HEMCO/CEDS/v2018-08/2014/PRPE-em-anthro_CMIP_CEDS_2014.nc
HEMCO: Opening /fsx/HEMCO/CEDS/v2018-08/2014/BENZ-em-anthro_CMIP_CEDS_2014.nc
HEMCO: Opening /fsx/HEMCO/CEDS/v2018-08/2014/TOLU-em-anthro_CMIP_CEDS_2014.nc
HEMCO: Opening /fsx/HEMCO/CEDS/v2018-08/2014/XYLE-em-anthro_CMIP_CEDS_2014.nc
HEMCO: Opening /fsx/HEMCO/CEDS/v2018-08/2014/CH2O-em-anthro_CMIP_CEDS_2014.nc
HEMCO: Opening /fsx/HEMCO/CEDS/v2018-08/2014/ALD2-em-anthro_CMIP_CEDS_2014.nc
HEMCO: Opening /fsx/HEMCO/CEDS/v2018-08/2014/MEK-em-anthro_CMIP_CEDS_2014.nc
HEMCO: Opening /fsx/HEMCO/CEDS/v2018-08/2014/HCOOH-em-anthro_CMIP_CEDS_2014.nc
HEMCO: Opening /fsx/HEMCO/CEDS/v2018-08/2014/NO-em-anthro_CMIP_CEDS_2014.nc
HEMCO: Opening /fsx/HEMCO/AEIC/v2015-01/AEIC.47L.gen.1x1.nc
HEMCO: Opening /fsx/HEMCO/ALD2/v2017-03/resp.geos.2x25.nc
HEMCO: Opening /fsx/HEMCO/DMS/v2015-07/DMS_lana.geos.1x1.nc
HEMCO: Opening /fsx/HEMCO/ALD2/v2017-03/ALD2_seawater.geos.2x25.nc
HEMCO: Opening /fsx/HEMCO/DUST_DEAD/v2014-07/dst_tvbds.geos.4x5.nc
HEMCO: Opening /fsx/HEMCO/DUST_DEAD/v2018-04/PM25FINE_ECLIPSE_2015.geos.2x25.nc
HEMCO: Opening /fsx/HEMCO/SOA/v2014-07/NVOC.geos.1x1.nc
HEMCO: Opening /fsx/HEMCO/GFED4/v2015-10/2016/GFED4_gen.025x025.201601.nc
HEMCO: Opening /fsx/HEMCO/UVALBEDO/v2015-03/uvalbedo.geos.2x25.nc
HEMCO: Opening /fsx/HEMCO/GMI/v2015-02/gmi.clim.ACET.geos5.2x25.nc
HEMCO: Opening /fsx/HEMCO/GMI/v2015-02/gmi.clim.ACTA.geos5.2x25.nc
HEMCO: Opening /fsx/HEMCO/GMI/v2015-02/gmi.clim.ALD2.geos5.2x25.nc
HEMCO: Opening /fsx/HEMCO/GMI/v2015-02/gmi.clim.ALK4.geos5.2x25.nc
HEMCO: Opening /fsx/HEMCO/GMI/v2015-02/gmi.clim.C2H6.geos5.2x25.nc
HEMCO: Opening /fsx/HEMCO/GMI/v2015-02/gmi.clim.C3H8.geos5.2x25.nc
HEMCO: Opening /fsx/HEMCO/GMI/v2015-02/gmi.clim.CCl4.geos5.2x25.nc
HEMCO: Opening /fsx/HEMCO/GMI/v2015-02/gmi.clim.CF2Cl2.geos5.2x25.nc
HEMCO: Opening /fsx/HEMCO/GMI/v2015-02/gmi.clim.CF2ClBr.geos5.2x25.nc
HEMCO: Opening /fsx/HEMCO/GMI/v2015-02/gmi.clim.CFC113.geos5.2x25.nc
HEMCO: Opening /fsx/HEMCO/GMI/v2015-02/gmi.clim.CFC114.geos5.2x25.nc
HEMCO: Opening /fsx/HEMCO/GMI/v2015-02/gmi.clim.CFC115.geos5.2x25.nc
HEMCO: Opening /fsx/HEMCO/GMI/v2015-02/gmi.clim.CFCl3.geos5.2x25.nc
HEMCO: Opening /fsx/HEMCO/GMI/v2015-02/gmi.clim.CH2O.geos5.2x25.nc
HEMCO: Opening /fsx/HEMCO/GMI/v2015-02/gmi.clim.CH3CCl3.geos5.2x25.nc
HEMCO: Opening /fsx/HEMCO/GMI/v2015-02/gmi.clim.CH3Cl.geos5.2x25.nc
HEMCO: Opening /fsx/HEMCO/GMI/v2015-02/gmi.clim.CH4.geos5.2x25.nc
HEMCO: Opening /fsx/HEMCO/GMI/v2015-02/gmi.clim.CO.geos5.2x25.nc
HEMCO: Opening /fsx/HEMCO/GMI/v2015-02/gmi.clim.Cl.geos5.2x25.nc
HEMCO: Opening /fsx/HEMCO/GMI/v2015-02/gmi.clim.Cl2.geos5.2x25.nc
HEMCO: Opening /fsx/HEMCO/GMI/v2015-02/gmi.clim.Cl2O2.geos5.2x25.nc
HEMCO: Opening /fsx/HEMCO/GMI/v2015-02/gmi.clim.ClO.geos5.2x25.nc
HEMCO: Opening /fsx/HEMCO/GMI/v2015-02/gmi.clim.EOH.geos5.2x25.nc
HEMCO: Opening /fsx/HEMCO/GMI/v2015-02/gmi.clim.GLYC.geos5.2x25.nc
HEMCO: Opening /fsx/HEMCO/GMI/v2015-02/gmi.clim.GLYX.geos5.2x25.nc
HEMCO: Opening /fsx/HEMCO/GMI/v2015-02/gmi.clim.H2402.geos5.2x25.nc
HEMCO: Opening /fsx/HEMCO/GMI/v2015-02/gmi.clim.H2O.geos5.2x25.nc
HEMCO: Opening /fsx/HEMCO/GMI/v2015-02/gmi.clim.H2O2.geos5.2x25.nc
HEMCO: Opening /fsx/HEMCO/GMI/v2015-02/gmi.clim.HAC.geos5.2x25.nc
HEMCO: Opening /fsx/HEMCO/GMI/v2015-02/gmi.clim.HCFC141b.geos5.2x25.nc
HEMCO: Opening /fsx/HEMCO/GMI/v2015-02/gmi.clim.HCFC142b.geos5.2x25.nc
HEMCO: Opening /fsx/HEMCO/GMI/v2015-02/gmi.clim.HCFC22.geos5.2x25.nc
HEMCO: Opening /fsx/HEMCO/GMI/v2015-02/gmi.clim.HCOOH.geos5.2x25.20170108.nc
HEMCO: Opening /fsx/HEMCO/GMI/v2015-02/gmi.clim.HCl.geos5.2x25.nc
HEMCO: Opening /fsx/HEMCO/GMI/v2015-02/gmi.clim.HNO2.geos5.2x25.nc
HEMCO: Opening /fsx/HEMCO/GMI/v2015-02/gmi.clim.HNO3.geos5.2x25.nc
HEMCO: Opening /fsx/HEMCO/GMI/v2015-02/gmi.clim.HNO4.geos5.2x25.nc
HEMCO: Opening /fsx/HEMCO/GMI/v2015-02/gmi.clim.HOCl.geos5.2x25.nc
HEMCO: Opening /fsx/HEMCO/GMI/v2015-02/gmi.clim.ISN1.geos5.2x25.nc
HEMCO: Opening /fsx/HEMCO/GMI/v2015-02/gmi.clim.ISOP.geos5.2x25.nc
HEMCO: Opening /fsx/HEMCO/GMI/v2015-02/gmi.clim.MACR.geos5.2x25.nc
HEMCO: Opening /fsx/HEMCO/GMI/v2015-02/gmi.clim.MAP.geos5.2x25.nc
HEMCO: Opening /fsx/HEMCO/GMI/v2015-02/gmi.clim.MEK.geos5.2x25.nc
HEMCO: Opening /fsx/HEMCO/GMI/v2015-02/gmi.clim.MGLY.geos5.2x25.nc
HEMCO: Opening /fsx/HEMCO/GMI/v2015-02/gmi.clim.MP.geos5.2x25.nc
HEMCO: Opening /fsx/HEMCO/GMI/v2015-02/gmi.clim.MVK.geos5.2x25.nc
HEMCO: Opening /fsx/HEMCO/GMI/v2015-02/gmi.clim.N2O.geos5.2x25.nc
HEMCO: Opening /fsx/HEMCO/GMI/v2015-02/gmi.clim.N2O5.geos5.2x25.nc
HEMCO: Opening /fsx/HEMCO/GMI/v2015-02/gmi.clim.NO.geos5.2x25.nc
HEMCO: Opening /fsx/HEMCO/GMI/v2015-02/gmi.clim.NO2.geos5.2x25.nc
HEMCO: Opening /fsx/HEMCO/GMI/v2015-02/gmi.clim.NO3.geos5.2x25.nc
HEMCO: Opening /fsx/HEMCO/GMI/v2015-02/gmi.clim.O3.geos5.2x25.nc
HEMCO: Opening /fsx/HEMCO/GMI/v2015-02/gmi.clim.OClO.geos5.2x25.nc
HEMCO: Opening /fsx/HEMCO/GMI/v2015-02/gmi.clim.PAN.geos5.2x25.nc
HEMCO: Opening /fsx/HEMCO/GMI/v2015-02/gmi.clim.NPMN.geos5.2x25.nc
HEMCO: Opening /fsx/HEMCO/GMI/v2015-02/gmi.clim.IPMN.geos5.2x25.nc
HEMCO: Opening /fsx/HEMCO/GMI/v2015-02/gmi.clim.PPN.geos5.2x25.nc
HEMCO: Opening /fsx/HEMCO/GMI/v2015-02/gmi.clim.PRPE.geos5.2x25.nc
HEMCO: Opening /fsx/HEMCO/GMI/v2015-02/gmi.clim.R4N2.geos5.2x25.nc
HEMCO: Opening /fsx/HEMCO/GMI/v2015-02/gmi.clim.RCHO.geos5.2x25.nc
HEMCO: Opening /fsx/HEMCO/GMI/v2015-02/gmi.clim.RIPA.geos5.2x25.nc
HEMCO: Opening /fsx/HEMCO/GMI/v2015-02/gmi.clim.RIPB.geos5.2x25.nc
HEMCO: Opening /fsx/HEMCO/GMI/v2015-02/gmi.clim.RIPD.geos5.2x25.nc
HEMCO: Opening /fsx/HEMCO/GMI/v2015-02/gmi.clim.OH.geos5.2x25.nc
HEMCO: Opening /fsx/HEMCO/NOAA_GMD/v2018-01/monthly.gridded.surface.methane.1979-2020.1x1.nc
HEMCO: Opening /fsx/HEMCO/GEIA/v2014-07/GEIA_monthscal.generic.1x1.nc
HEMCO: Opening /fsx/HEMCO/EMEP/v2015-03/EMEP.Seasonal.geos.1x1.nc
HEMCO: Opening /fsx/HEMCO/BROMINE/v2015-02/BromoCarb_Season.nc
HEMCO: Opening /fsx/HEMCO/EDGARv43/v2016-11/EDGAR_v43.Seasonal.1x1.nc
HEMCO: Opening /fsx/HEMCO/NEI2005/v2014-09/scaling/NEI99.dow.geos.1x1.nc
HEMCO: Opening /fsx/HEMCO/VOLCANO/v2015-02/2009/volc_so2_gen.1x1.47L.200901.nc
HEMCO: Opening /fsx/HEMCO/SOILNOX/v2014-07/soilNOx.fert_res.generic.05x05.nc
 vdinti: pbl height will be limited to bottom           25  model levels. top is
     431.250100000000       hpa
 =================================================
 W R F - G C   T I M E R S
    Domain           1 (Units: s)
 =================================================
  => Coupler Component                       0.054
   -- Physics & Parameterization             0.010
   -- Diagnostics Out                        0.000
  => GEOS-Chem Column                       88.101
  ===> Total Chemistry                      88.155
  => WRF                                    17.363
  ===> Total WRF-GC                        105.518
 max optd  4.5185168E+30
 max taucldi  5.2389151E-09
 max taucldw  1.1967285E-06
 Switching is not necessary as we are already
 in the right domain!
 GIGC_Chunk_Run: Running for in-PET grid #           1
 GIGC_Chunk_Run: Received new grid IM, JM, LM =          14           9
          49
 =================================================
 W R F - G C   T I M E R S
    Domain           1 (Units: s)
 =================================================
  => Coupler Component                       0.085
   -- Physics & Parameterization             0.020
   -- Diagnostics Out                        0.000
  => GEOS-Chem Column                       89.102
  ===> Total Chemistry                      89.186
  => WRF                                   102.854
  ===> Total WRF-GC                        192.040
 max optd  4.5185168E+30
 max taucldi  1.4270118E-08
 max taucldw  2.4366389E-06
 Switching is not necessary as we are already
 in the right domain!
 GIGC_Chunk_Run: Running for in-PET grid #           1
 GIGC_Chunk_Run: Received new grid IM, JM, LM =          14           9
          49
 =================================================
 W R F - G C   T I M E R S
    Domain           1 (Units: s)
 =================================================
  => Coupler Component                       0.113
   -- Physics & Parameterization             0.029
   -- Diagnostics Out                        0.000
  => GEOS-Chem Column                       90.043
  ===> Total Chemistry                      90.156
  => WRF                                   123.718
  ===> Total WRF-GC                        213.874
 max optd  4.5185168E+30
 max taucldi  2.7524703E-08
 max taucldw  3.6693361E-06
 Switching is not necessary as we are already
 in the right domain!
 GIGC_Chunk_Run: Running for in-PET grid #           1
 GIGC_Chunk_Run: Received new grid IM, JM, LM =          14           9
          49
 =================================================
 W R F - G C   T I M E R S
    Domain           1 (Units: s)
 =================================================
  => Coupler Component                       0.145
   -- Physics & Parameterization             0.038
   -- Diagnostics Out                        0.000
  => GEOS-Chem Column                       90.975
  ===> Total Chemistry                      91.119
  => WRF                                   142.862
  ===> Total WRF-GC                        233.981
 max optd  4.5185168E+30
 max taucldi  4.4569408E-08
 max taucldw  4.8320471E-06
 Switching is not necessary as we are already
 in the right domain!
 GIGC_Chunk_Run: Running for in-PET grid #           1
 GIGC_Chunk_Run: Received new grid IM, JM, LM =          14           9
          49
 =================================================
 W R F - G C   T I M E R S
    Domain           1 (Units: s)
 =================================================
  => Coupler Component                       0.174
   -- Physics & Parameterization             0.048
   -- Diagnostics Out                        0.000
  => GEOS-Chem Column                       91.898
  ===> Total Chemistry                      92.072
  => WRF                                   161.561
  ===> Total WRF-GC                        253.634
 max optd  4.5185168E+30
 max taucldi  6.3876229E-08
 max taucldw  5.8879714E-06
 Switching is not necessary as we are already
 in the right domain!
 GIGC_Chunk_Run: Running for in-PET grid #           1
 GIGC_Chunk_Run: Received new grid IM, JM, LM =          14           9
          49
 =================================================
 W R F - G C   T I M E R S
    Domain           1 (Units: s)
 =================================================
  => Coupler Component                       0.206
   -- Physics & Parameterization             0.058
   -- Diagnostics Out                        0.000
  => GEOS-Chem Column                       92.825
  ===> Total Chemistry                      93.030
  => WRF                                   180.147
  ===> Total WRF-GC                        273.177
 max optd  4.5185168E+30
 max taucldi  8.4308653E-08
 max taucldw  6.8159129E-06
 Switching is not necessary as we are already
 in the right domain!
 GIGC_Chunk_Run: Running for in-PET grid #           1
 GIGC_Chunk_Run: Received new grid IM, JM, LM =          14           9
          49
 =================================================
 W R F - G C   T I M E R S
    Domain           1 (Units: s)
 =================================================
  => Coupler Component                       0.241
   -- Physics & Parameterization             0.068
   -- Diagnostics Out                        0.000
  => GEOS-Chem Column                       93.738
  ===> Total Chemistry                      93.979
  => WRF                                   198.713
  ===> Total WRF-GC                        292.692
 max optd  4.5185168E+30
 max taucldi  1.0928236E-07
 max taucldw  7.6187766E-06
 Switching is not necessary as we are already
 in the right domain!
 GIGC_Chunk_Run: Running for in-PET grid #           1
 GIGC_Chunk_Run: Received new grid IM, JM, LM =          14           9
          49
 =================================================
 W R F - G C   T I M E R S
    Domain           1 (Units: s)
 =================================================
  => Coupler Component                       0.275
   -- Physics & Parameterization             0.078
   -- Diagnostics Out                        0.000
  => GEOS-Chem Column                       94.652
  ===> Total Chemistry                      94.927
  => WRF                                   217.224
  ===> Total WRF-GC                        312.151
 max optd  4.5185168E+30
 max taucldi  1.3703506E-07
 max taucldw  8.2982206E-06
 Switching is not necessary as we are already
 in the right domain!
 GIGC_Chunk_Run: Running for in-PET grid #           1
 GIGC_Chunk_Run: Received new grid IM, JM, LM =          14           9
          49
 =================================================
 W R F - G C   T I M E R S
    Domain           1 (Units: s)
 =================================================
  => Coupler Component                       0.304
   -- Physics & Parameterization             0.088
   -- Diagnostics Out                        0.000
  => GEOS-Chem Column                       95.570
  ===> Total Chemistry                      95.874
  => WRF                                   235.756
  ===> Total WRF-GC                        331.630
 max optd  4.5185168E+30
 max taucldi  1.6579662E-07
 max taucldw  9.0595213E-06
 Switching is not necessary as we are already
 in the right domain!
 GIGC_Chunk_Run: Running for in-PET grid #           1
 GIGC_Chunk_Run: Received new grid IM, JM, LM =          14           9
          49
 =================================================
 W R F - G C   T I M E R S
    Domain           1 (Units: s)
 =================================================
  => Coupler Component                       0.332
   -- Physics & Parameterization             0.097
   -- Diagnostics Out                        0.000
  => GEOS-Chem Column                       96.498
  ===> Total Chemistry                      96.829
  => WRF                                   254.338
  ===> Total WRF-GC                        351.167
 max optd  4.5185168E+30
 max taucldi  2.0161121E-07
 max taucldw  9.8749269E-06
 Switching is not necessary as we are already
 in the right domain!
 GIGC_Chunk_Run: Running for in-PET grid #           1
 GIGC_Chunk_Run: Received new grid IM, JM, LM =          14           9
          49
 =================================================
 W R F - G C   T I M E R S
    Domain           1 (Units: s)
 =================================================
  => Coupler Component                       0.367
   -- Physics & Parameterization             0.107
   -- Diagnostics Out                        0.000
  => GEOS-Chem Column                       97.398
  ===> Total Chemistry                      97.765
  => WRF                                   272.815
  ===> Total WRF-GC                        370.579
 max optd  4.5185168E+30
 max taucldi  2.4097133E-07
 max taucldw  1.0601053E-05
 Switching is not necessary as we are already
 in the right domain!
 GIGC_Chunk_Run: Running for in-PET grid #           1
 GIGC_Chunk_Run: Received new grid IM, JM, LM =          14           9
          49
 =================================================
 W R F - G C   T I M E R S
    Domain           1 (Units: s)
 =================================================
  => Coupler Component                       0.399
   -- Physics & Parameterization             0.116
   -- Diagnostics Out                        0.000
  => GEOS-Chem Column                       98.310
  ===> Total Chemistry                      98.710
  => WRF                                   291.208
  ===> Total WRF-GC                        389.918
 HOURLY EMISSIONS UPDATE TIME     3600.0       0.0
mediation_integrate: med_read_wrf_chem_emissions: Read emissions for time 2018-01-01_01:00:00
 max optd  4.5185168E+30
 max taucldi  2.8026091E-07
 max taucldw  1.1250458E-05
 Switching is not necessary as we are already
 in the right domain!
 GIGC_Chunk_Run: Running for in-PET grid #           1
 GIGC_Chunk_Run: Received new grid IM, JM, LM =          14           9
          49
 =================================================
 W R F - G C   T I M E R S
    Domain           1 (Units: s)
 =================================================
  => Coupler Component                       0.432
   -- Physics & Parameterization             0.126
   -- Diagnostics Out                        0.000
  => GEOS-Chem Column                       99.222
  ===> Total Chemistry                      99.654
  => WRF                                   309.663
  ===> Total WRF-GC                        409.317
 max optd  4.5185168E+30
 max taucldi  3.1835177E-07
 max taucldw  1.1896622E-05
 Switching is not necessary as we are already
 in the right domain!
 GIGC_Chunk_Run: Running for in-PET grid #           1
 GIGC_Chunk_Run: Received new grid IM, JM, LM =          14           9
          49
 =================================================
 W R F - G C   T I M E R S
    Domain           1 (Units: s)
 =================================================
  => Coupler Component                       0.461
   -- Physics & Parameterization             0.135
   -- Diagnostics Out                        0.000
  => GEOS-Chem Column                      100.145
  ===> Total Chemistry                     100.606
  => WRF                                   328.142
  ===> Total WRF-GC                        428.748
 max optd  4.5185168E+30
 max taucldi  3.5460155E-07
 max taucldw  1.2600698E-05
 Switching is not necessary as we are already
 in the right domain!
 GIGC_Chunk_Run: Running for in-PET grid #           1
 GIGC_Chunk_Run: Received new grid IM, JM, LM =          14           9
          49
 =================================================
 W R F - G C   T I M E R S
    Domain           1 (Units: s)
 =================================================
  => Coupler Component                       0.491
   -- Physics & Parameterization             0.145
   -- Diagnostics Out                        0.000
  => GEOS-Chem Column                      101.065
  ===> Total Chemistry                     101.556
  => WRF                                   346.462
  ===> Total WRF-GC                        448.018
 max optd  4.5185168E+30
 max taucldi  3.8957683E-07
 max taucldw  1.3218755E-05
 Switching is not necessary as we are already
 in the right domain!
 GIGC_Chunk_Run: Running for in-PET grid #           1
 GIGC_Chunk_Run: Received new grid IM, JM, LM =          14           9
          49
 =================================================
 W R F - G C   T I M E R S
    Domain           1 (Units: s)
 =================================================
  => Coupler Component                       0.524
   -- Physics & Parameterization             0.154
   -- Diagnostics Out                        0.000
  => GEOS-Chem Column                      101.978
  ===> Total Chemistry                     102.502
  => WRF                                   364.862
  ===> Total WRF-GC                        467.364
 max optd  4.5185168E+30
 max taucldi  4.3182067E-07
 max taucldw  1.3752263E-05
 Switching is not necessary as we are already
 in the right domain!
 GIGC_Chunk_Run: Running for in-PET grid #           1
 GIGC_Chunk_Run: Received new grid IM, JM, LM =          14           9
          49
 =================================================
 W R F - G C   T I M E R S
    Domain           1 (Units: s)
 =================================================
  => Coupler Component                       0.557
   -- Physics & Parameterization             0.164
   -- Diagnostics Out                        0.000
  => GEOS-Chem Column                      102.889
  ===> Total Chemistry                     103.446
  => WRF                                   383.241
  ===> Total WRF-GC                        486.687
 max optd  4.5185168E+30
 max taucldi  4.7046453E-07
 max taucldw  1.4245096E-05
 Switching is not necessary as we are already
 in the right domain!
 GIGC_Chunk_Run: Running for in-PET grid #           1
 GIGC_Chunk_Run: Received new grid IM, JM, LM =          14           9
          49
 =================================================
 W R F - G C   T I M E R S
    Domain           1 (Units: s)
 =================================================
  => Coupler Component                       0.589
   -- Physics & Parameterization             0.174
   -- Diagnostics Out                        0.000
  => GEOS-Chem Column                      103.797
  ===> Total Chemistry                     104.386
  => WRF                                   401.581
  ===> Total WRF-GC                        505.967
 max optd  4.5185168E+30
 max taucldi  5.0717205E-07
 max taucldw  1.4722990E-05
 Switching is not necessary as we are already
 in the right domain!
 GIGC_Chunk_Run: Running for in-PET grid #           1
 GIGC_Chunk_Run: Received new grid IM, JM, LM =          14           9
          49
 =================================================
 W R F - G C   T I M E R S
    Domain           1 (Units: s)
 =================================================
  => Coupler Component                       0.621
   -- Physics & Parameterization             0.183
   -- Diagnostics Out                        0.000
  => GEOS-Chem Column                      104.707
  ===> Total Chemistry                     105.327
  => WRF                                   419.976
  ===> Total WRF-GC                        525.303
 max optd  4.5185168E+30
 max taucldi  5.4220357E-07
 max taucldw  1.5183956E-05
 Switching is not necessary as we are already
 in the right domain!
 GIGC_Chunk_Run: Running for in-PET grid #           1
 GIGC_Chunk_Run: Received new grid IM, JM, LM =          14           9
          49
 =================================================
 W R F - G C   T I M E R S
    Domain           1 (Units: s)
 =================================================
  => Coupler Component                       0.653
   -- Physics & Parameterization             0.193
   -- Diagnostics Out                        0.000
  => GEOS-Chem Column                      105.620
  ===> Total Chemistry                     106.274
  => WRF                                   438.481
  ===> Total WRF-GC                        544.755
 max optd  4.5185168E+30
 max taucldi  5.7807034E-07
 max taucldw  1.5651680E-05
 Switching is not necessary as we are already
 in the right domain!
 GIGC_Chunk_Run: Running for in-PET grid #           1
 GIGC_Chunk_Run: Received new grid IM, JM, LM =          14           9
          49
 =================================================
 W R F - G C   T I M E R S
    Domain           1 (Units: s)
 =================================================
  => Coupler Component                       0.687
   -- Physics & Parameterization             0.203
   -- Diagnostics Out                        0.000
  => GEOS-Chem Column                      106.527
  ===> Total Chemistry                     107.214
  => WRF                                   456.723
  ===> Total WRF-GC                        563.936
 max optd  4.5185168E+30
 max taucldi  6.1569637E-07
 max taucldw  1.6125632E-05
 Switching is not necessary as we are already
 in the right domain!
 GIGC_Chunk_Run: Running for in-PET grid #           1
 GIGC_Chunk_Run: Received new grid IM, JM, LM =          14           9
          49
 =================================================
 W R F - G C   T I M E R S
    Domain           1 (Units: s)
 =================================================
  => Coupler Component                       0.717
   -- Physics & Parameterization             0.212
   -- Diagnostics Out                        0.000
  => GEOS-Chem Column                      107.442
  ===> Total Chemistry                     108.160
  => WRF                                   475.059
  ===> Total WRF-GC                        583.219
 max optd  4.5185168E+30
 max taucldi  6.5606002E-07
 max taucldw  1.6582369E-05
 Switching is not necessary as we are already
 in the right domain!
 GIGC_Chunk_Run: Running for in-PET grid #           1
 GIGC_Chunk_Run: Received new grid IM, JM, LM =          14           9
          49
 =================================================
 W R F - G C   T I M E R S
    Domain           1 (Units: s)
 =================================================
  => Coupler Component                       0.751
   -- Physics & Parameterization             0.221
   -- Diagnostics Out                        0.000
  => GEOS-Chem Column                      108.356
  ===> Total Chemistry                     109.107
  => WRF                                   493.489
  ===> Total WRF-GC                        602.597
 max optd  4.5185168E+30
 max taucldi  6.9765872E-07
 max taucldw  1.7001295E-05
 Switching is not necessary as we are already
 in the right domain!
 GIGC_Chunk_Run: Running for in-PET grid #           1
 GIGC_Chunk_Run: Received new grid IM, JM, LM =          14           9
          49
 =================================================
 W R F - G C   T I M E R S
    Domain           1 (Units: s)
 =================================================
  => Coupler Component                       0.787
   -- Physics & Parameterization             0.230
   -- Diagnostics Out                        0.000
  => GEOS-Chem Column                      109.266
  ===> Total Chemistry                     110.052
  => WRF                                   511.802
  ===> Total WRF-GC                        621.855
 HOURLY EMISSIONS UPDATE TIME     7200.0       0.0
mediation_integrate: med_read_wrf_chem_emissions: Read emissions for time 2018-01-01_02:00:00
 max optd  4.5185168E+30
 max taucldi  7.4097704E-07
 max taucldw  1.7344246E-05
 Switching is not necessary as we are already
 in the right domain!
 GIGC_Chunk_Run: Running for in-PET grid #           1
 GIGC_Chunk_Run: Received new grid IM, JM, LM =          14           9
          49
 =================================================
 W R F - G C   T I M E R S
    Domain           1 (Units: s)
 =================================================
  => Coupler Component                       0.819
   -- Physics & Parameterization             0.240
   -- Diagnostics Out                        0.000
  => GEOS-Chem Column                      110.175
  ===> Total Chemistry                     110.994
  => WRF                                   530.160
  ===> Total WRF-GC                        641.155
 max optd  4.5185168E+30
 max taucldi  7.8356419E-07
 max taucldw  1.7584543E-05
 Switching is not necessary as we are already
 in the right domain!
 GIGC_Chunk_Run: Running for in-PET grid #           1
 GIGC_Chunk_Run: Received new grid IM, JM, LM =          14           9
          49
 =================================================
 W R F - G C   T I M E R S
    Domain           1 (Units: s)
 =================================================
  => Coupler Component                       0.855
   -- Physics & Parameterization             0.249
   -- Diagnostics Out                        0.000
  => GEOS-Chem Column                      111.091
  ===> Total Chemistry                     111.946
  => WRF                                   548.525
  ===> Total WRF-GC                        660.471
 max optd  4.5185168E+30
 max taucldi  8.2766491E-07
 max taucldw  1.7815231E-05
 Switching is not necessary as we are already
 in the right domain!
 GIGC_Chunk_Run: Running for in-PET grid #           1
 GIGC_Chunk_Run: Received new grid IM, JM, LM =          14           9
          49
 =================================================
 W R F - G C   T I M E R S
    Domain           1 (Units: s)
 =================================================
  => Coupler Component                       0.886
   -- Physics & Parameterization             0.259
   -- Diagnostics Out                        0.000
  => GEOS-Chem Column                      112.015
  ===> Total Chemistry                     112.901
  => WRF                                   566.802
  ===> Total WRF-GC                        679.703
 max optd  4.5185168E+30
 max taucldi  8.7202852E-07
 max taucldw  1.8103572E-05
 Switching is not necessary as we are already
 in the right domain!
 GIGC_Chunk_Run: Running for in-PET grid #           1
 GIGC_Chunk_Run: Received new grid IM, JM, LM =          14           9
          49
 =================================================
 W R F - G C   T I M E R S
    Domain           1 (Units: s)
 =================================================
  => Coupler Component                       0.923
   -- Physics & Parameterization             0.268
   -- Diagnostics Out                        0.000
  => GEOS-Chem Column                      112.918
  ===> Total Chemistry                     113.841
  => WRF                                   585.033
  ===> Total WRF-GC                        698.874
 max optd  4.5185168E+30
 max taucldi  9.1630955E-07
 max taucldw  1.8306655E-05
 Switching is not necessary as we are already
 in the right domain!
 GIGC_Chunk_Run: Running for in-PET grid #           1
 GIGC_Chunk_Run: Received new grid IM, JM, LM =          14           9
          49
 =================================================
 W R F - G C   T I M E R S
    Domain           1 (Units: s)
 =================================================
  => Coupler Component                       0.956
   -- Physics & Parameterization             0.277
   -- Diagnostics Out                        0.000
  => GEOS-Chem Column                      113.830
  ===> Total Chemistry                     114.786
  => WRF                                   603.317
  ===> Total WRF-GC                        718.103
 max optd  4.5185168E+30
 max taucldi  9.5887913E-07
 max taucldw  1.8395927E-05
 Switching is not necessary as we are already
 in the right domain!
 GIGC_Chunk_Run: Running for in-PET grid #           1
 GIGC_Chunk_Run: Received new grid IM, JM, LM =          14           9
          49
 =================================================
 W R F - G C   T I M E R S
    Domain           1 (Units: s)
 =================================================
  => Coupler Component                       0.991
   -- Physics & Parameterization             0.287
   -- Diagnostics Out                        0.000
  => GEOS-Chem Column                      114.745
  ===> Total Chemistry                     115.736
  => WRF                                   621.601
  ===> Total WRF-GC                        737.337
 max optd  4.5185168E+30
 max taucldi  1.0085166E-06
 max taucldw  1.8407462E-05
 Switching is not necessary as we are already
 in the right domain!
 GIGC_Chunk_Run: Running for in-PET grid #           1
 GIGC_Chunk_Run: Received new grid IM, JM, LM =          14           9
          49
 =================================================
 W R F - G C   T I M E R S
    Domain           1 (Units: s)
 =================================================
  => Coupler Component                       1.022
   -- Physics & Parameterization             0.296
   -- Diagnostics Out                        0.000
  => GEOS-Chem Column                      115.665
  ===> Total Chemistry                     116.687
  => WRF                                   639.905
  ===> Total WRF-GC                        756.592
 max optd  4.5185168E+30
 max taucldi  1.0647482E-06
 max taucldw  1.8416815E-05
 Switching is not necessary as we are already
 in the right domain!
 GIGC_Chunk_Run: Running for in-PET grid #           1
 GIGC_Chunk_Run: Received new grid IM, JM, LM =          14           9
          49
 =================================================
 W R F - G C   T I M E R S
    Domain           1 (Units: s)
 =================================================
  => Coupler Component                       1.057
   -- Physics & Parameterization             0.305
   -- Diagnostics Out                        0.000
  => GEOS-Chem Column                      116.575
  ===> Total Chemistry                     117.632
  => WRF                                   658.111
  ===> Total WRF-GC                        775.742
 max optd  4.5185168E+30
 max taucldi  1.1027616E-06
 max taucldw  1.8431760E-05
 Switching is not necessary as we are already
 in the right domain!
 GIGC_Chunk_Run: Running for in-PET grid #           1
 GIGC_Chunk_Run: Received new grid IM, JM, LM =          14           9
          49
 =================================================
 W R F - G C   T I M E R S
    Domain           1 (Units: s)
 =================================================
  => Coupler Component                       1.093
   -- Physics & Parameterization             0.314
   -- Diagnostics Out                        0.000
  => GEOS-Chem Column                      117.507
  ===> Total Chemistry                     118.600
  => WRF                                   676.388
  ===> Total WRF-GC                        794.988
 max optd  4.5185168E+30
 max taucldi  1.1324275E-06
 max taucldw  1.8412953E-05
 Switching is not necessary as we are already
 in the right domain!
 GIGC_Chunk_Run: Running for in-PET grid #           1
 GIGC_Chunk_Run: Received new grid IM, JM, LM =          14           9
          49
 =================================================
 W R F - G C   T I M E R S
    Domain           1 (Units: s)
 =================================================
  => Coupler Component                       1.125
   -- Physics & Parameterization             0.323
   -- Diagnostics Out                        0.000
  => GEOS-Chem Column                      118.419
  ===> Total Chemistry                     119.544
  => WRF                                   694.635
  ===> Total WRF-GC                        814.179
 max optd  4.5185168E+30
 max taucldi  1.2086239E-06
 max taucldw  1.8396431E-05
 Switching is not necessary as we are already
 in the right domain!
 GIGC_Chunk_Run: Running for in-PET grid #           1
 GIGC_Chunk_Run: Received new grid IM, JM, LM =          14           9
          49
 =================================================
 W R F - G C   T I M E R S
    Domain           1 (Units: s)
 =================================================
  => Coupler Component                       1.155
   -- Physics & Parameterization             0.332
   -- Diagnostics Out                        0.000
  => GEOS-Chem Column                      119.334
  ===> Total Chemistry                     120.489
  => WRF                                   712.825
  ===> Total WRF-GC                        833.314
 max optd  4.5185168E+30
 max taucldi  1.3071794E-06
 max taucldw  1.8930859E-05
 Switching is not necessary as we are already
 in the right domain!
 GIGC_Chunk_Run: Running for in-PET grid #           1
 GIGC_Chunk_Run: Received new grid IM, JM, LM =          14           9
          49
 =================================================
 W R F - G C   T I M E R S
    Domain           1 (Units: s)
 =================================================
  => Coupler Component                       1.185
   -- Physics & Parameterization             0.342
   -- Diagnostics Out                        0.000
  => GEOS-Chem Column                      120.251
  ===> Total Chemistry                     121.436
  => WRF                                   731.046
  ===> Total WRF-GC                        852.482
 HOURLY EMISSIONS UPDATE TIME    10800.0       0.0
mediation_integrate: med_read_wrf_chem_emissions: Read emissions for time 2018-01-01_03:00:00
 max optd  4.5185168E+30
 max taucldi  1.4078578E-06
 max taucldw  1.9600320E-05
 Switching is not necessary as we are already
 in the right domain!
 GIGC_Chunk_Run: Running for in-PET grid #           1
 GIGC_Chunk_Run: Received new grid IM, JM, LM =          14           9
          49
 =================================================
 W R F - G C   T I M E R S
    Domain           1 (Units: s)
 =================================================
  => Coupler Component                       1.216
   -- Physics & Parameterization             0.351
   -- Diagnostics Out                        0.000
  => GEOS-Chem Column                      121.170
  ===> Total Chemistry                     122.386
  => WRF                                   749.326
  ===> Total WRF-GC                        871.713
 max optd  4.5185168E+30
 max taucldi  1.5084667E-06
 max taucldw  2.0240537E-05
 Switching is not necessary as we are already
 in the right domain!
 GIGC_Chunk_Run: Running for in-PET grid #           1
 GIGC_Chunk_Run: Received new grid IM, JM, LM =          14           9
          49
 =================================================
 W R F - G C   T I M E R S
    Domain           1 (Units: s)
 =================================================
  => Coupler Component                       1.249
   -- Physics & Parameterization             0.360
   -- Diagnostics Out                        0.000
  => GEOS-Chem Column                      122.087
  ===> Total Chemistry                     123.336
  => WRF                                   767.560
  ===> Total WRF-GC                        890.896
 max optd  4.5185168E+30
 max taucldi  1.6026714E-06
 max taucldw  2.0807633E-05
 Switching is not necessary as we are already
 in the right domain!
 GIGC_Chunk_Run: Running for in-PET grid #           1
 GIGC_Chunk_Run: Received new grid IM, JM, LM =          14           9
          49
 =================================================
 W R F - G C   T I M E R S
    Domain           1 (Units: s)
 =================================================
  => Coupler Component                       1.281
   -- Physics & Parameterization             0.369
   -- Diagnostics Out                        0.000
  => GEOS-Chem Column                      123.000
  ===> Total Chemistry                     124.281
  => WRF                                   785.812
  ===> Total WRF-GC                        910.093
 max optd  4.5185168E+30
 max taucldi  1.7355438E-06
 max taucldw  2.1310007E-05
 Switching is not necessary as we are already
 in the right domain!
 GIGC_Chunk_Run: Running for in-PET grid #           1
 GIGC_Chunk_Run: Received new grid IM, JM, LM =          14           9
          49
 =================================================
 W R F - G C   T I M E R S
    Domain           1 (Units: s)
 =================================================
  => Coupler Component                       1.316
   -- Physics & Parameterization             0.378
   -- Diagnostics Out                        0.000
  => GEOS-Chem Column                      123.914
  ===> Total Chemistry                     125.230
  => WRF                                   804.038
  ===> Total WRF-GC                        929.268
 max optd  4.5185168E+30
 max taucldi  2.0043235E-06
 max taucldw  2.1889688E-05
 Switching is not necessary as we are already
 in the right domain!
 GIGC_Chunk_Run: Running for in-PET grid #           1
 GIGC_Chunk_Run: Received new grid IM, JM, LM =          14           9
          49
 =================================================
 W R F - G C   T I M E R S
    Domain           1 (Units: s)
 =================================================
  => Coupler Component                       1.350
   -- Physics & Parameterization             0.387
   -- Diagnostics Out                        0.000
  => GEOS-Chem Column                      124.827
  ===> Total Chemistry                     126.177
  => WRF                                   822.245
  ===> Total WRF-GC                        948.421
 max optd  4.5185168E+30
 max taucldi  2.2266383E-06
 max taucldw  2.2888618E-05
 Switching is not necessary as we are already
 in the right domain!
 GIGC_Chunk_Run: Running for in-PET grid #           1
 GIGC_Chunk_Run: Received new grid IM, JM, LM =          14           9
          49
 =================================================
 W R F - G C   T I M E R S
    Domain           1 (Units: s)
 =================================================
  => Coupler Component                       1.378
   -- Physics & Parameterization             0.396
   -- Diagnostics Out                        0.000
  => GEOS-Chem Column                      125.757
  ===> Total Chemistry                     127.135
  => WRF                                   840.773
  ===> Total WRF-GC                        967.907
 max optd  4.5185168E+30
 max taucldi  2.3633015E-06
 max taucldw  2.3764260E-05
 Switching is not necessary as we are already
 in the right domain!
 GIGC_Chunk_Run: Running for in-PET grid #           1
 GIGC_Chunk_Run: Received new grid IM, JM, LM =          14           9
          49
 =================================================
 W R F - G C   T I M E R S
    Domain           1 (Units: s)
 =================================================
  => Coupler Component                       1.410
   -- Physics & Parameterization             0.405
   -- Diagnostics Out                        0.000
  => GEOS-Chem Column                      126.680
  ===> Total Chemistry                     128.090
  => WRF                                   859.044
  ===> Total WRF-GC                        987.134
 max optd  4.5185168E+30
 max taucldi  2.6469079E-06
 max taucldw  2.4403687E-05
 Switching is not necessary as we are already
 in the right domain!
 GIGC_Chunk_Run: Running for in-PET grid #           1
 GIGC_Chunk_Run: Received new grid IM, JM, LM =          14           9
          49
 =================================================
 W R F - G C   T I M E R S
    Domain           1 (Units: s)
 =================================================
  => Coupler Component                       1.438
   -- Physics & Parameterization             0.414
   -- Diagnostics Out                        0.000
  => GEOS-Chem Column                      127.622
  ===> Total Chemistry                     129.060
  => WRF                                   877.237
  ===> Total WRF-GC                       1006.298
 max optd  4.5185168E+30
 max taucldi  2.8515533E-06
 max taucldw  2.4813506E-05
 Switching is not necessary as we are already
 in the right domain!
 GIGC_Chunk_Run: Running for in-PET grid #           1
 GIGC_Chunk_Run: Received new grid IM, JM, LM =          14           9
          49
 =================================================
 W R F - G C   T I M E R S
    Domain           1 (Units: s)
 =================================================
  => Coupler Component                       1.471
   -- Physics & Parameterization             0.424
   -- Diagnostics Out                        0.000
  => GEOS-Chem Column                      128.536
  ===> Total Chemistry                     130.007
  => WRF                                   895.561
  ===> Total WRF-GC                       1025.568
 max optd  4.5185168E+30
 max taucldi  2.9775547E-06
 max taucldw  2.5849706E-05
 Switching is not necessary as we are already
 in the right domain!
 GIGC_Chunk_Run: Running for in-PET grid #           1
 GIGC_Chunk_Run: Received new grid IM, JM, LM =          14           9
          49
 =================================================
 W R F - G C   T I M E R S
    Domain           1 (Units: s)
 =================================================
  => Coupler Component                       1.504
   -- Physics & Parameterization             0.433
   -- Diagnostics Out                        0.000
  => GEOS-Chem Column                      129.452
  ===> Total Chemistry                     130.956
  => WRF                                   913.845
  ===> Total WRF-GC                       1044.802
 max optd  4.5185168E+30
 max taucldi  3.0607966E-06
 max taucldw  2.6700511E-05
 Switching is not necessary as we are already
 in the right domain!
 GIGC_Chunk_Run: Running for in-PET grid #           1
 GIGC_Chunk_Run: Received new grid IM, JM, LM =          14           9
          49
 =================================================
 W R F - G C   T I M E R S
    Domain           1 (Units: s)
 =================================================
  => Coupler Component                       1.532
   -- Physics & Parameterization             0.442
   -- Diagnostics Out                        0.000
  => GEOS-Chem Column                      130.378
  ===> Total Chemistry                     131.910
  => WRF                                   932.091
  ===> Total WRF-GC                       1064.000
 max optd  4.5185168E+30
 max taucldi  3.2430050E-06
 max taucldw  2.7296179E-05
 Switching is not necessary as we are already
 in the right domain!
 GIGC_Chunk_Run: Running for in-PET grid #           1
 GIGC_Chunk_Run: Received new grid IM, JM, LM =          14           9
          49
 =================================================
 W R F - G C   T I M E R S
    Domain           1 (Units: s)
 =================================================
  => Coupler Component                       1.568
   -- Physics & Parameterization             0.451
   -- Diagnostics Out                        0.000
  => GEOS-Chem Column                      131.294
  ===> Total Chemistry                     132.862
  => WRF                                   950.369
  ===> Total WRF-GC                       1083.231
 HOURLY EMISSIONS UPDATE TIME    14400.0       0.0
mediation_integrate: med_read_wrf_chem_emissions: Read emissions for time 2018-01-01_04:00:00
 max optd  4.5185168E+30
 max taucldi  3.5709024E-06
 max taucldw  2.9638748E-05
 Switching is not necessary as we are already
 in the right domain!
 GIGC_Chunk_Run: Running for in-PET grid #           1
 GIGC_Chunk_Run: Received new grid IM, JM, LM =          14           9
          49
 =================================================
 W R F - G C   T I M E R S
    Domain           1 (Units: s)
 =================================================
  => Coupler Component                       1.597
   -- Physics & Parameterization             0.460
   -- Diagnostics Out                        0.000
  => GEOS-Chem Column                      132.211
  ===> Total Chemistry                     133.808
  => WRF                                   968.646
  ===> Total WRF-GC                       1102.453
 max optd  4.5185168E+30
 max taucldi  3.9428946E-06
 max taucldw  3.1722535E-05
 Switching is not necessary as we are already
 in the right domain!
 GIGC_Chunk_Run: Running for in-PET grid #           1
 GIGC_Chunk_Run: Received new grid IM, JM, LM =          14           9
          49
 =================================================
 W R F - G C   T I M E R S
    Domain           1 (Units: s)
 =================================================
  => Coupler Component                       1.629
   -- Physics & Parameterization             0.469
   -- Diagnostics Out                        0.000
  => GEOS-Chem Column                      133.141
  ===> Total Chemistry                     134.770
  => WRF                                   986.954
  ===> Total WRF-GC                       1121.724
 max optd  4.5185168E+30
 max taucldi  4.2675556E-06
 max taucldw  3.3393440E-05
 Switching is not necessary as we are already
 in the right domain!
 GIGC_Chunk_Run: Running for in-PET grid #           1
 GIGC_Chunk_Run: Received new grid IM, JM, LM =          14           9
          49
 =================================================
 W R F - G C   T I M E R S
    Domain           1 (Units: s)
 =================================================
  => Coupler Component                       1.662
   -- Physics & Parameterization             0.479
   -- Diagnostics Out                        0.000
  => GEOS-Chem Column                      134.061
  ===> Total Chemistry                     135.723
  => WRF                                  1005.277
  ===> Total WRF-GC                       1141.000
 max optd  4.5185168E+30
 max taucldi  4.5306519E-06
 max taucldw  3.5525762E-05
 Switching is not necessary as we are already
 in the right domain!
 GIGC_Chunk_Run: Running for in-PET grid #           1
 GIGC_Chunk_Run: Received new grid IM, JM, LM =          14           9
          49
 =================================================
 W R F - G C   T I M E R S
    Domain           1 (Units: s)
 =================================================
  => Coupler Component                       1.694
   -- Physics & Parameterization             0.488
   -- Diagnostics Out                        0.000
  => GEOS-Chem Column                      134.982
  ===> Total Chemistry                     136.676
  => WRF                                  1023.521
  ===> Total WRF-GC                       1160.197
 max optd  4.5185168E+30
 max taucldi  4.8355341E-06
 max taucldw  3.6552283E-05
 Switching is not necessary as we are already
 in the right domain!
 GIGC_Chunk_Run: Running for in-PET grid #           1
 GIGC_Chunk_Run: Received new grid IM, JM, LM =          14           9
          49
 =================================================
 W R F - G C   T I M E R S
    Domain           1 (Units: s)
 =================================================
  => Coupler Component                       1.724
   -- Physics & Parameterization             0.497
   -- Diagnostics Out                        0.000
  => GEOS-Chem Column                      135.903
  ===> Total Chemistry                     137.627
  => WRF                                  1041.819
  ===> Total WRF-GC                       1179.446
 max optd  4.5185168E+30
 max taucldi  5.0582730E-06
 max taucldw  3.7377111E-05
 Switching is not necessary as we are already
 in the right domain!
 GIGC_Chunk_Run: Running for in-PET grid #           1
 GIGC_Chunk_Run: Received new grid IM, JM, LM =          14           9
          49
 =================================================
 W R F - G C   T I M E R S
    Domain           1 (Units: s)
 =================================================
  => Coupler Component                       1.755
   -- Physics & Parameterization             0.506
   -- Diagnostics Out                        0.000
  => GEOS-Chem Column                      136.826
  ===> Total Chemistry                     138.581
  => WRF                                  1060.092
  ===> Total WRF-GC                       1198.672
 max optd  4.5185168E+30
 max taucldi  5.2131782E-06
 max taucldw  3.8263108E-05
 Switching is not necessary as we are already
 in the right domain!
 GIGC_Chunk_Run: Running for in-PET grid #           1
 GIGC_Chunk_Run: Received new grid IM, JM, LM =          14           9
          49
 =================================================
 W R F - G C   T I M E R S
    Domain           1 (Units: s)
 =================================================
  => Coupler Component                       1.788
   -- Physics & Parameterization             0.516
   -- Diagnostics Out                        0.000
  => GEOS-Chem Column                      137.742
  ===> Total Chemistry                     139.531
  => WRF                                  1078.431
  ===> Total WRF-GC                       1217.961
 max optd  4.5185168E+30
 max taucldi  5.3412332E-06
 max taucldw  3.9050494E-05
 Switching is not necessary as we are already
 in the right domain!
 GIGC_Chunk_Run: Running for in-PET grid #           1
 GIGC_Chunk_Run: Received new grid IM, JM, LM =          14           9
          49
 =================================================
 W R F - G C   T I M E R S
    Domain           1 (Units: s)
 =================================================
  => Coupler Component                       1.823
   -- Physics & Parameterization             0.525
   -- Diagnostics Out                        0.000
  => GEOS-Chem Column                      138.659
  ===> Total Chemistry                     140.482
  => WRF                                  1096.676
  ===> Total WRF-GC                       1237.158
 max optd  4.5185168E+30
 max taucldi  5.4484726E-06
 max taucldw  3.9771159E-05
 Switching is not necessary as we are already
 in the right domain!
 GIGC_Chunk_Run: Running for in-PET grid #           1
 GIGC_Chunk_Run: Received new grid IM, JM, LM =          14           9
          49
 =================================================
 W R F - G C   T I M E R S
    Domain           1 (Units: s)
 =================================================
  => Coupler Component                       1.854
   -- Physics & Parameterization             0.534
   -- Diagnostics Out                        0.000
  => GEOS-Chem Column                      139.577
  ===> Total Chemistry                     141.431
  => WRF                                  1114.953
  ===> Total WRF-GC                       1256.384
 max optd  4.5185168E+30
 max taucldi  5.5438777E-06
 max taucldw  4.0463259E-05
 Switching is not necessary as we are already
 in the right domain!
 GIGC_Chunk_Run: Running for in-PET grid #           1
 GIGC_Chunk_Run: Received new grid IM, JM, LM =          14           9
          49
 =================================================
 W R F - G C   T I M E R S
    Domain           1 (Units: s)
 =================================================
  => Coupler Component                       1.889
   -- Physics & Parameterization             0.544
   -- Diagnostics Out                        0.000
  => GEOS-Chem Column                      140.492
  ===> Total Chemistry                     142.381
  => WRF                                  1133.231
  ===> Total WRF-GC                       1275.612
 max optd  4.5185168E+30
 max taucldi  5.6689355E-06
 max taucldw  4.1124636E-05
 Switching is not necessary as we are already
 in the right domain!
 GIGC_Chunk_Run: Running for in-PET grid #           1
 GIGC_Chunk_Run: Received new grid IM, JM, LM =          14           9
          49
 =================================================
 W R F - G C   T I M E R S
    Domain           1 (Units: s)
 =================================================
  => Coupler Component                       1.920
   -- Physics & Parameterization             0.553
   -- Diagnostics Out                        0.000
  => GEOS-Chem Column                      141.414
  ===> Total Chemistry                     143.334
  => WRF                                  1151.462
  ===> Total WRF-GC                       1294.796
 max optd  4.5185168E+30
 max taucldi  5.7905490E-06
 max taucldw  4.1713814E-05
 Switching is not necessary as we are already
 in the right domain!
 GIGC_Chunk_Run: Running for in-PET grid #           1
 GIGC_Chunk_Run: Received new grid IM, JM, LM =          14           9
          49
 =================================================
 W R F - G C   T I M E R S
    Domain           1 (Units: s)
 =================================================
  => Coupler Component                       1.953
   -- Physics & Parameterization             0.562
   -- Diagnostics Out                        0.000
  => GEOS-Chem Column                      142.329
  ===> Total Chemistry                     144.282
  => WRF                                  1169.662
  ===> Total WRF-GC                       1313.944
 HOURLY EMISSIONS UPDATE TIME    18000.0       0.0
mediation_integrate: med_read_wrf_chem_emissions: Read emissions for time 2018-01-01_05:00:00
 max optd  4.5185168E+30
 max taucldi  5.8639844E-06
 max taucldw  4.2218526E-05
 Switching is not necessary as we are already
 in the right domain!
 GIGC_Chunk_Run: Running for in-PET grid #           1
 GIGC_Chunk_Run: Received new grid IM, JM, LM =          14           9
          49
 =================================================
 W R F - G C   T I M E R S
    Domain           1 (Units: s)
 =================================================
  => Coupler Component                       1.987
   -- Physics & Parameterization             0.572
   -- Diagnostics Out                        0.000
  => GEOS-Chem Column                      143.245
  ===> Total Chemistry                     145.232
  => WRF                                  1187.969
  ===> Total WRF-GC                       1333.201
 max optd  4.5185168E+30
 max taucldi  5.8851979E-06
 max taucldw  4.2569158E-05
 Switching is not necessary as we are already
 in the right domain!
 GIGC_Chunk_Run: Running for in-PET grid #           1
 GIGC_Chunk_Run: Received new grid IM, JM, LM =          14           9
          49
 =================================================
 W R F - G C   T I M E R S
    Domain           1 (Units: s)
 =================================================
  => Coupler Component                       2.022
   -- Physics & Parameterization             0.581
   -- Diagnostics Out                        0.000
  => GEOS-Chem Column                      144.159
  ===> Total Chemistry                     146.180
  => WRF                                  1206.204
  ===> Total WRF-GC                       1352.385
 max optd  4.5185168E+30
 max taucldi  5.8492578E-06
 max taucldw  4.2634110E-05
 Switching is not necessary as we are already
 in the right domain!
 GIGC_Chunk_Run: Running for in-PET grid #           1
 GIGC_Chunk_Run: Received new grid IM, JM, LM =          14           9
          49
 =================================================
 W R F - G C   T I M E R S
    Domain           1 (Units: s)
 =================================================
  => Coupler Component                       2.056
   -- Physics & Parameterization             0.591
   -- Diagnostics Out                        0.000
  => GEOS-Chem Column                      145.072
  ===> Total Chemistry                     147.128
  => WRF                                  1224.450
  ===> Total WRF-GC                       1371.578
 max optd  4.5185168E+30
 max taucldi  5.8138007E-06
 max taucldw  4.2387335E-05
 Switching is not necessary as we are already
 in the right domain!
 GIGC_Chunk_Run: Running for in-PET grid #           1
 GIGC_Chunk_Run: Received new grid IM, JM, LM =          14           9
          49
 =================================================
 W R F - G C   T I M E R S
    Domain           1 (Units: s)
 =================================================
  => Coupler Component                       2.088
   -- Physics & Parameterization             0.600
   -- Diagnostics Out                        0.000
  => GEOS-Chem Column                      145.988
  ===> Total Chemistry                     148.076
  => WRF                                  1242.734
  ===> Total WRF-GC                       1390.810
 max optd  4.5185168E+30
 max taucldi  5.7396251E-06
 max taucldw  4.1867872E-05
 Switching is not necessary as we are already
 in the right domain!
 GIGC_Chunk_Run: Running for in-PET grid #           1
 GIGC_Chunk_Run: Received new grid IM, JM, LM =          14           9
          49
 =================================================
 W R F - G C   T I M E R S
    Domain           1 (Units: s)
 =================================================
  => Coupler Component                       2.121
   -- Physics & Parameterization             0.610
   -- Diagnostics Out                        0.000
  => GEOS-Chem Column                      146.904
  ===> Total Chemistry                     149.025
  => WRF                                  1261.063
  ===> Total WRF-GC                       1410.088
 max optd  4.5185168E+30
 max taucldi  5.6369440E-06
 max taucldw  4.1170937E-05
 Switching is not necessary as we are already
 in the right domain!
 GIGC_Chunk_Run: Running for in-PET grid #           1
 GIGC_Chunk_Run: Received new grid IM, JM, LM =          14           9
          49
 =================================================
 W R F - G C   T I M E R S
    Domain           1 (Units: s)
 =================================================
  => Coupler Component                       2.152
   -- Physics & Parameterization             0.619
   -- Diagnostics Out                        0.000
  => GEOS-Chem Column                      147.821
  ===> Total Chemistry                     149.973
  => WRF                                  1279.288
  ===> Total WRF-GC                       1429.261
 max optd  4.5185168E+30
 max taucldi  5.5229730E-06
 max taucldw  4.0411731E-05
 Switching is not necessary as we are already
 in the right domain!
 GIGC_Chunk_Run: Running for in-PET grid #           1
 GIGC_Chunk_Run: Received new grid IM, JM, LM =          14           9
          49
 =================================================
 W R F - G C   T I M E R S
    Domain           1 (Units: s)
 =================================================
  => Coupler Component                       2.183
   -- Physics & Parameterization             0.628
   -- Diagnostics Out                        0.000
  => GEOS-Chem Column                      148.737
  ===> Total Chemistry                     150.920
  => WRF                                  1297.618
  ===> Total WRF-GC                       1448.539
 max optd  4.5185168E+30
 max taucldi  5.4064008E-06
 max taucldw  3.9648370E-05
 Switching is not necessary as we are already
 in the right domain!
 GIGC_Chunk_Run: Running for in-PET grid #           1
 GIGC_Chunk_Run: Received new grid IM, JM, LM =          14           9
          49
 =================================================
 W R F - G C   T I M E R S
    Domain           1 (Units: s)
 =================================================
  => Coupler Component                       2.216
   -- Physics & Parameterization             0.638
   -- Diagnostics Out                        0.000
  => GEOS-Chem Column                      149.652
  ===> Total Chemistry                     151.868
  => WRF                                  1315.876
  ===> Total WRF-GC                       1467.744
 max optd  4.5185168E+30
 max taucldi  5.3021554E-06
 max taucldw  3.9764986E-05
 Switching is not necessary as we are already
 in the right domain!
 GIGC_Chunk_Run: Running for in-PET grid #           1
 GIGC_Chunk_Run: Received new grid IM, JM, LM =          14           9
          49
 =================================================
 W R F - G C   T I M E R S
    Domain           1 (Units: s)
 =================================================
  => Coupler Component                       2.248
   -- Physics & Parameterization             0.647
   -- Diagnostics Out                        0.000
  => GEOS-Chem Column                      150.567
  ===> Total Chemistry                     152.815
  => WRF                                  1334.193
  ===> Total WRF-GC                       1487.008
 max optd  4.5185168E+30
 max taucldi  5.2221712E-06
 max taucldw  3.9889001E-05
 Switching is not necessary as we are already
 in the right domain!
 GIGC_Chunk_Run: Running for in-PET grid #           1
 GIGC_Chunk_Run: Received new grid IM, JM, LM =          14           9
          49
 =================================================
 W R F - G C   T I M E R S
    Domain           1 (Units: s)
 =================================================
  => Coupler Component                       2.278
   -- Physics & Parameterization             0.656
   -- Diagnostics Out                        0.000
  => GEOS-Chem Column                      151.483
  ===> Total Chemistry                     153.761
  => WRF                                  1352.748
  ===> Total WRF-GC                       1506.509
 max optd  4.5185168E+30
 max taucldi  5.1710490E-06
 max taucldw  3.9960902E-05
 Switching is not necessary as we are already
 in the right domain!
 GIGC_Chunk_Run: Running for in-PET grid #           1
 GIGC_Chunk_Run: Received new grid IM, JM, LM =          14           9
          49
 =================================================
 W R F - G C   T I M E R S
    Domain           1 (Units: s)
 =================================================
  => Coupler Component                       2.309
   -- Physics & Parameterization             0.665
   -- Diagnostics Out                        0.000
  => GEOS-Chem Column                      152.398
  ===> Total Chemistry                     154.707
  => WRF                                  1371.013
  ===> Total WRF-GC                       1525.721
 max optd  4.5185168E+30
 max taucldi  5.1511765E-06
 max taucldw  3.9948514E-05
 Switching is not necessary as we are already
 in the right domain!
 GIGC_Chunk_Run: Running for in-PET grid #           1
 GIGC_Chunk_Run: Received new grid IM, JM, LM =          14           9
          49
 =================================================
 W R F - G C   T I M E R S
    Domain           1 (Units: s)
 =================================================
  => Coupler Component                       2.339
   -- Physics & Parameterization             0.675
   -- Diagnostics Out                        0.000
  => GEOS-Chem Column                      153.319
  ===> Total Chemistry                     155.658
  => WRF                                  1389.292
  ===> Total WRF-GC                       1544.950
 HOURLY EMISSIONS UPDATE TIME    21600.0       0.0
mediation_integrate: med_read_wrf_chem_emissions: Read emissions for time 2018-01-01_06:00:00
 max optd  4.5185168E+30
 max taucldi  5.1602924E-06
 max taucldw  3.9854280E-05
 Switching is not necessary as we are already
 in the right domain!
 GIGC_Chunk_Run: Running for in-PET grid #           1
 GIGC_Chunk_Run: Received new grid IM, JM, LM =          14           9
          49
 =================================================
 W R F - G C   T I M E R S
    Domain           1 (Units: s)
 =================================================
  => Coupler Component                       2.368
   -- Physics & Parameterization             0.684
   -- Diagnostics Out                        0.000
  => GEOS-Chem Column                      154.243
  ===> Total Chemistry                     156.611
  => WRF                                  1848.110
  ===> Total WRF-GC                       2004.721
 max optd  4.5185168E+30
 max taucldi  5.1947018E-06
 max taucldw  3.9712450E-05
 Switching is not necessary as we are already
 in the right domain!
 GIGC_Chunk_Run: Running for in-PET grid #           1
 GIGC_Chunk_Run: Received new grid IM, JM, LM =          14           9
          49
 =================================================
 W R F - G C   T I M E R S
    Domain           1 (Units: s)
 =================================================
  => Coupler Component                       2.397
   -- Physics & Parameterization             0.694
   -- Diagnostics Out                        0.000
  => GEOS-Chem Column                      155.163
  ===> Total Chemistry                     157.560
  => WRF                                  1866.386
  ===> Total WRF-GC                       2023.946
 max optd  4.5185168E+30
 max taucldi  5.2474079E-06
 max taucldw  3.9778693E-05
 Switching is not necessary as we are already
 in the right domain!
 GIGC_Chunk_Run: Running for in-PET grid #           1
 GIGC_Chunk_Run: Received new grid IM, JM, LM =          14           9
          49
 =================================================
 W R F - G C   T I M E R S
    Domain           1 (Units: s)
 =================================================
  => Coupler Component                       2.432
   -- Physics & Parameterization             0.703
   -- Diagnostics Out                        0.000
  => GEOS-Chem Column                      156.076
  ===> Total Chemistry                     158.507
  => WRF                                  1884.788
  ===> Total WRF-GC                       2043.295
 max optd  4.5185168E+30
 max taucldi  5.3109238E-06
 max taucldw  3.9866081E-05
 Switching is not necessary as we are already
 in the right domain!
 GIGC_Chunk_Run: Running for in-PET grid #           1
 GIGC_Chunk_Run: Received new grid IM, JM, LM =          14           9
          49
 =================================================
 W R F - G C   T I M E R S
    Domain           1 (Units: s)
 =================================================
  => Coupler Component                       2.463
[...]
  => GEOS-Chem Column                      197.309
  ===> Total Chemistry                     201.184
  => WRF                                  2709.306
  ===> Total WRF-GC                       2910.491
 HOURLY EMISSIONS UPDATE TIME    36000.0       0.0
mediation_integrate: med_read_wrf_chem_emissions: Read emissions for time 2018-01-01_10:00:00
 max optd  4.5185168E+30
 max taucldi  9.7398197E-06
 max taucldw  8.5308093E-05
 Switching is not necessary as we are already
 in the right domain!
 GIGC_Chunk_Run: Running for in-PET grid #           1
 GIGC_Chunk_Run: Received new grid IM, JM, LM =          14           9
          49
 =================================================
 W R F - G C   T I M E R S
    Domain           1 (Units: s)
 =================================================
  => Coupler Component                       3.911
   -- Physics & Parameterization             1.141
   -- Diagnostics Out                        0.000
  => GEOS-Chem Column                      198.226
  ===> Total Chemistry                     202.137
  => WRF                                  2727.673
  ===> Total WRF-GC                       2929.810
 max optd  4.5185168E+30
 max taucldi  9.9975887E-06
 max taucldw  8.6513654E-05
 Switching is not necessary as we are already
 in the right domain!
 GIGC_Chunk_Run: Running for in-PET grid #           1
 GIGC_Chunk_Run: Received new grid IM, JM, LM =          14           9
          49
 =================================================
 W R F - G C   T I M E R S
    Domain           1 (Units: s)
 =================================================
  => Coupler Component                       3.947
   -- Physics & Parameterization             1.151
   -- Diagnostics Out                        0.000
  => GEOS-Chem Column                      199.150
  ===> Total Chemistry                     203.097
  => WRF                                  2745.976
  ===> Total WRF-GC                       2949.074
 max optd  4.5185168E+30
 max taucldi  1.0255856E-05
 max taucldw  8.7641078E-05
 Switching is not necessary as we are already
 in the right domain!
 GIGC_Chunk_Run: Running for in-PET grid #           1
 GIGC_Chunk_Run: Received new grid IM, JM, LM =          14           9
          49
 =================================================
 W R F - G C   T I M E R S
    Domain           1 (Units: s)
 =================================================
  => Coupler Component                       3.978
   -- Physics & Parameterization             1.159
   -- Diagnostics Out                        0.000
  => GEOS-Chem Column                      200.071
  ===> Total Chemistry                     204.049
  => WRF                                  2764.252
  ===> Total WRF-GC                       2968.301
 max optd  4.5185168E+30
 max taucldi  1.0516203E-05
 max taucldw  8.8820896E-05
 Switching is not necessary as we are already
 in the right domain!
 GIGC_Chunk_Run: Running for in-PET grid #           1
 GIGC_Chunk_Run: Received new grid IM, JM, LM =          14           9
          49
 =================================================
 W R F - G C   T I M E R S
    Domain           1 (Units: s)
 =================================================
  => Coupler Component                       4.011
   -- Physics & Parameterization             1.169
   -- Diagnostics Out                        0.000
  => GEOS-Chem Column                      200.991
  ===> Total Chemistry                     205.002
  => WRF                                  2782.626
  ===> Total WRF-GC                       2987.628
 max optd  4.5185168E+30
 max taucldi  1.0785128E-05
 max taucldw  9.0154572E-05
 Switching is not necessary as we are already
 in the right domain!
 GIGC_Chunk_Run: Running for in-PET grid #           1
 GIGC_Chunk_Run: Received new grid IM, JM, LM =          14           9
          49
 =================================================
 W R F - G C   T I M E R S
    Domain           1 (Units: s)
 =================================================
  => Coupler Component                       4.043
   -- Physics & Parameterization             1.178
   -- Diagnostics Out                        0.000
  => GEOS-Chem Column                      201.906
  ===> Total Chemistry                     205.950
  => WRF                                  2800.942
  ===> Total WRF-GC                       3006.892
 max optd  4.5185168E+30
 max taucldi  1.1064156E-05
 max taucldw  9.1651957E-05
 Switching is not necessary as we are already
 in the right domain!
 GIGC_Chunk_Run: Running for in-PET grid #           1
 GIGC_Chunk_Run: Received new grid IM, JM, LM =          14           9
          49
 =================================================
 W R F - G C   T I M E R S
    Domain           1 (Units: s)
 =================================================
  => Coupler Component                       4.076
   -- Physics & Parameterization             1.188
   -- Diagnostics Out                        0.000
  => GEOS-Chem Column                      202.823
  ===> Total Chemistry                     206.899
  => WRF                                  2819.190
  ===> Total WRF-GC                       3026.089
 max optd  4.5185168E+30
 max taucldi  1.1351783E-05
 max taucldw  9.3249553E-05
 Switching is not necessary as we are already
 in the right domain!
 GIGC_Chunk_Run: Running for in-PET grid #           1
 GIGC_Chunk_Run: Received new grid IM, JM, LM =          14           9
          49
 =================================================
 W R F - G C   T I M E R S
    Domain           1 (Units: s)
 =================================================
  => Coupler Component                       4.107
   -- Physics & Parameterization             1.197
   -- Diagnostics Out                        0.000
  => GEOS-Chem Column                      203.749
  ===> Total Chemistry                     207.856
  => WRF                                  2837.521
  ===> Total WRF-GC                       3045.377
 max optd  4.5185168E+30
 max taucldi  1.1643225E-05
 max taucldw  9.4878043E-05
 Switching is not necessary as we are already
 in the right domain!
 GIGC_Chunk_Run: Running for in-PET grid #           1
 GIGC_Chunk_Run: Received new grid IM, JM, LM =          14           9
          49
 =================================================
 W R F - G C   T I M E R S
    Domain           1 (Units: s)
 =================================================
  => Coupler Component                       4.141
   -- Physics & Parameterization             1.206
   -- Diagnostics Out                        0.000
  => GEOS-Chem Column                      204.665
  ===> Total Chemistry                     208.806
  => WRF                                  2855.815
  ===> Total WRF-GC                       3064.621
 max optd  4.5185168E+30
 max taucldi  1.1937065E-05
 max taucldw  9.6513868E-05
 Switching is not necessary as we are already
 in the right domain!
 GIGC_Chunk_Run: Running for in-PET grid #           1
 GIGC_Chunk_Run: Received new grid IM, JM, LM =          14           9
          49
 =================================================
 W R F - G C   T I M E R S
    Domain           1 (Units: s)
 =================================================
  => Coupler Component                       4.172
   -- Physics & Parameterization             1.215
   -- Diagnostics Out                        0.000
  => GEOS-Chem Column                      205.585
  ===> Total Chemistry                     209.758
  => WRF                                  2874.088
  ===> Total WRF-GC                       3083.846
 max optd  4.5185168E+30
 max taucldi  1.2237855E-05
 max taucldw  9.8147808E-05
 Switching is not necessary as we are already
 in the right domain!
 GIGC_Chunk_Run: Running for in-PET grid #           1
 GIGC_Chunk_Run: Received new grid IM, JM, LM =          14           9
          49
 =================================================
 W R F - G C   T I M E R S
    Domain           1 (Units: s)
 =================================================
  => Coupler Component                       4.206
   -- Physics & Parameterization             1.225
   -- Diagnostics Out                        0.000
  => GEOS-Chem Column                      206.505
  ===> Total Chemistry                     210.711
  => WRF                                  2892.455
  ===> Total WRF-GC                       3103.166
 max optd  4.5185168E+30
 max taucldi  1.2547825E-05
 max taucldw  9.9742661E-05
 Switching is not necessary as we are already
 in the right domain!
 GIGC_Chunk_Run: Running for in-PET grid #           1
 GIGC_Chunk_Run: Received new grid IM, JM, LM =          14           9
          49
 =================================================
 W R F - G C   T I M E R S
    Domain           1 (Units: s)
 =================================================
  => Coupler Component                       4.240
   -- Physics & Parameterization             1.234
   -- Diagnostics Out                        0.000
  => GEOS-Chem Column                      207.423
  ===> Total Chemistry                     211.663
  => WRF                                  2910.733
  ===> Total WRF-GC                       3122.396
 max optd  4.5185168E+30
 max taucldi  1.2863924E-05
 max taucldw  1.0129232E-04
 Switching is not necessary as we are already
 in the right domain!
 GIGC_Chunk_Run: Running for in-PET grid #           1
 GIGC_Chunk_Run: Received new grid IM, JM, LM =          14           9
          49
 =================================================
 W R F - G C   T I M E R S
    Domain           1 (Units: s)
 =================================================
  => Coupler Component                       4.268
   -- Physics & Parameterization             1.244
   -- Diagnostics Out                        0.000
  => GEOS-Chem Column                      208.359
  ===> Total Chemistry                     212.626
  => WRF                                  2929.101
  ===> Total WRF-GC                       3141.728
 HOURLY EMISSIONS UPDATE TIME    39600.0       0.0
mediation_integrate: med_read_wrf_chem_emissions: Read emissions for time 2018-01-01_11:00:00
 max optd  4.5185168E+30
 max taucldi  1.3188886E-05
 max taucldw  1.0284775E-04
 Switching is not necessary as we are already
 in the right domain!
 GIGC_Chunk_Run: Running for in-PET grid #           1
 GIGC_Chunk_Run: Received new grid IM, JM, LM =          14           9
          49
 =================================================
 W R F - G C   T I M E R S
    Domain           1 (Units: s)
 =================================================
  => Coupler Component                       4.297
   -- Physics & Parameterization             1.253
   -- Diagnostics Out                        0.000
  => GEOS-Chem Column                      209.281
  ===> Total Chemistry                     213.578
  => WRF                                  2947.378
  ===> Total WRF-GC                       3160.956
 max optd  4.5185168E+30
 max taucldi  1.3527542E-05
 max taucldw  1.0442987E-04
 Switching is not necessary as we are already
 in the right domain!
 GIGC_Chunk_Run: Running for in-PET grid #           1
 GIGC_Chunk_Run: Received new grid IM, JM, LM =          14           9
          49
 =================================================
 W R F - G C   T I M E R S
    Domain           1 (Units: s)
 =================================================
  => Coupler Component                       4.328
   -- Physics & Parameterization             1.263
   -- Diagnostics Out                        0.000
  => GEOS-Chem Column                      210.204
  ===> Total Chemistry                     214.531
  => WRF                                  2965.659
  ===> Total WRF-GC                       3180.190
 max optd  4.5185168E+30
 max taucldi  1.3881549E-05
 max taucldw  1.0602651E-04
 Switching is not necessary as we are already
 in the right domain!
 GIGC_Chunk_Run: Running for in-PET grid #           1
 GIGC_Chunk_Run: Received new grid IM, JM, LM =          14           9
          49
 =================================================
 W R F - G C   T I M E R S
    Domain           1 (Units: s)
 =================================================
  => Coupler Component                       4.360
   -- Physics & Parameterization             1.272
   -- Diagnostics Out                        0.000
  => GEOS-Chem Column                      211.121
  ===> Total Chemistry                     215.482
  => WRF                                  2984.040
  ===> Total WRF-GC                       3199.522
 max optd  4.5185168E+30
 max taucldi  1.4250615E-05
 max taucldw  1.0763250E-04
 Switching is not necessary as we are already
 in the right domain!
 GIGC_Chunk_Run: Running for in-PET grid #           1
 GIGC_Chunk_Run: Received new grid IM, JM, LM =          14           9
          49
 =================================================
 W R F - G C   T I M E R S
    Domain           1 (Units: s)
 =================================================
  => Coupler Component                       4.398
   -- Physics & Parameterization             1.281
   -- Diagnostics Out                        0.000
  => GEOS-Chem Column                      212.043
  ===> Total Chemistry                     216.441
  => WRF                                  3002.459
  ===> Total WRF-GC                       3218.900
 max optd  4.5185168E+30
 max taucldi  1.4636581E-05
 max taucldw  1.0926490E-04
 Switching is not necessary as we are already
 in the right domain!
 GIGC_Chunk_Run: Running for in-PET grid #           1
 GIGC_Chunk_Run: Received new grid IM, JM, LM =          14           9
          49
 =================================================
 W R F - G C   T I M E R S
    Domain           1 (Units: s)
 =================================================
  => Coupler Component                       4.431
   -- Physics & Parameterization             1.291
   -- Diagnostics Out                        0.000
  => GEOS-Chem Column                      212.970
  ===> Total Chemistry                     217.401
  => WRF                                  3021.011
  ===> Total WRF-GC                       3238.412
 max optd  4.5185168E+30
 max taucldi  1.5039157E-05
 max taucldw  1.1086606E-04
 Switching is not necessary as we are already
 in the right domain!
 GIGC_Chunk_Run: Running for in-PET grid #           1
 GIGC_Chunk_Run: Received new grid IM, JM, LM =          14           9
          49
 =================================================
 W R F - G C   T I M E R S
    Domain           1 (Units: s)
 =================================================
  => Coupler Component                       4.458
   -- Physics & Parameterization             1.300
   -- Diagnostics Out                        0.000
  => GEOS-Chem Column                      213.899
  ===> Total Chemistry                     218.356
  => WRF                                  3039.527
  ===> Total WRF-GC                       3257.883
 max optd  4.5185168E+30
 max taucldi  1.5453214E-05
 max taucldw  1.1234518E-04
 Switching is not necessary as we are already
 in the right domain!
 GIGC_Chunk_Run: Running for in-PET grid #           1
 GIGC_Chunk_Run: Received new grid IM, JM, LM =          14           9
          49
 =================================================
 W R F - G C   T I M E R S
    Domain           1 (Units: s)
 =================================================
  => Coupler Component                       4.489
   -- Physics & Parameterization             1.310
   -- Diagnostics Out                        0.000
  => GEOS-Chem Column                      214.823
  ===> Total Chemistry                     219.312
  => WRF                                  3058.222
  ===> Total WRF-GC                       3277.534
 max optd  4.5185168E+30
 max taucldi  1.5871214E-05
 max taucldw  1.1358619E-04
 Switching is not necessary as we are already
 in the right domain!
 GIGC_Chunk_Run: Running for in-PET grid #           1
 GIGC_Chunk_Run: Received new grid IM, JM, LM =          14           9
          49
 =================================================
 W R F - G C   T I M E R S
    Domain           1 (Units: s)
 =================================================
  => Coupler Component                       4.519
   -- Physics & Parameterization             1.319
   -- Diagnostics Out                        0.000
  => GEOS-Chem Column                      215.741
  ===> Total Chemistry                     220.260
  => WRF                                  3076.923
  ===> Total WRF-GC                       3297.183
 max optd  4.5185168E+30
 max taucldi  1.6318878E-05
 max taucldw  1.1517158E-04
 Switching is not necessary as we are already
 in the right domain!
 GIGC_Chunk_Run: Running for in-PET grid #           1
 GIGC_Chunk_Run: Received new grid IM, JM, LM =          14           9
          49
 =================================================
 W R F - G C   T I M E R S
    Domain           1 (Units: s)
 =================================================
  => Coupler Component                       4.554
   -- Physics & Parameterization             1.329
   -- Diagnostics Out                        0.000
  => GEOS-Chem Column                      216.664
  ===> Total Chemistry                     221.218
  => WRF                                  3095.750
  ===> Total WRF-GC                       3316.968
 max optd  4.5185168E+30
 max taucldi  1.6768290E-05
 max taucldw  1.1667566E-04
 Switching is not necessary as we are already
 in the right domain!
 GIGC_Chunk_Run: Running for in-PET grid #           1
 GIGC_Chunk_Run: Received new grid IM, JM, LM =          14           9
          49
 =================================================
 W R F - G C   T I M E R S
    Domain           1 (Units: s)
 =================================================
  => Coupler Component                       4.584
   -- Physics & Parameterization             1.338
   -- Diagnostics Out                        0.000
  => GEOS-Chem Column                      217.601
  ===> Total Chemistry                     222.185
  => WRF                                  3114.802
  ===> Total WRF-GC                       3336.987
 max optd  4.5185168E+30
 max taucldi  1.7220329E-05
 max taucldw  1.1800678E-04
 Switching is not necessary as we are already
 in the right domain!
 GIGC_Chunk_Run: Running for in-PET grid #           1
 GIGC_Chunk_Run: Received new grid IM, JM, LM =          14           9
          49
 =================================================
 W R F - G C   T I M E R S
    Domain           1 (Units: s)
 =================================================
  => Coupler Component                       4.616
   -- Physics & Parameterization             1.348
   -- Diagnostics Out                        0.000
  => GEOS-Chem Column                      218.520
  ===> Total Chemistry                     223.136
  => WRF                                  3133.725
  ===> Total WRF-GC                       3356.861
 max optd  4.5185168E+30
 max taucldi  1.7670300E-05
 max taucldw  1.1917279E-04
 Switching is not necessary as we are already
 in the right domain!
 GIGC_Chunk_Run: Running for in-PET grid #           1
 GIGC_Chunk_Run: Received new grid IM, JM, LM =          14           9
          49
 =================================================
 W R F - G C   T I M E R S
    Domain           1 (Units: s)
 =================================================
  => Coupler Component                       4.646
   -- Physics & Parameterization             1.357
   -- Diagnostics Out                        0.000
  => GEOS-Chem Column                      219.446
  ===> Total Chemistry                     224.092
  => WRF                                  3152.600
  ===> Total WRF-GC                       3376.693
d01 2018-01-01_12:00:00 wrf: SUCCESS COMPLETE WRF
