taskid: 4346 hostname: ip-172-31-14-228
Quilting with   1 groups of   0 I/O tasks.
 Ntasks in X           64 , ntasks in Y           72
--- WARNING: traj_opt is zero, but num_traj is not zero; setting num_traj to zero.
--- NOTE: sst_update is 0, setting io_form_auxinput4 = 0 and auxinput4_interval = 0 for all domains
--- NOTE: grid_fdda is 0 for domain      1, setting gfdda interval and ending time to 0 for that domain.
--- NOTE: both grid_sfdda and pxlsm_soil_nudge are 0 for domain      1, setting sgfdda interval and ending time to 0 for that domain.
--- NOTE: obs_nudge_opt is 0 for domain      1, setting obs nudging interval and ending time to 0 for that domain.
--- NOTE: bl_pbl_physics /= 4, implies mfshconv must be 0, resetting
Need MYNN PBL for icloud_bl = 1, resetting to 0
*************************************
No physics suite selected.
Physics options will be used directly from the namelist.
*************************************
--- NOTE: RRTMG radiation is in use, setting:  levsiz=59, alevsiz=12, no_src_types=6
--- NOTE: num_soil_layers has been set to      4
WRF V3.9.1.1 MODEL
 *************************************
 Parent domain
 ids,ide,jds,jde            1         950           1         650
 ims,ime,jms,jme          854         882         598         620
 ips,ipe,jps,jpe          861         875         605         613
 *************************************
DYNAMICS OPTION: Eulerian Mass Coordinate
   alloc_space_field: domain            1 ,              203623800  bytes allocated
  med_initialdata_input: calling input_input
Max map factor in domain 1 =  1.40. Scale the dt in the model accordingly.
INPUT LandUse = "USGS"
 LANDUSE TYPE = "USGS" FOUND          33  CATEGORIES           2  SEASONS WATER CATEGORY =           16  SNOW CATEGORY =           24
INITIALIZE THREE Noah LSM RELATED TABLES
*****************************************************************
  __          _______  ______       _____  _____ _    _ _____
  \ \        / /  __ \|  ____|     / ____|/ ____| |  | |  __ \
   \ \  /\  / /| |__) | |__ ______| |  __| |    | |__| | |__) |
    \ \/  \/ / |  _  /|  __|______| | |_ | |    |  __  |  ___/
     \  /\  /  | | \ \| |         | |__| | |____| |  | | |
      \/  \/   |_|  \_\_|          \_____|\_____|_|  |_|_|
*****************************************************************
         WRF-GC MODEL, VERSION 1811.11 - WRF BINDINGS
 For errors, suggestions & feedback email linhaipeng@pku.edu.cn
*****************************************************************
    This is domain            1
 ### GIGC_Stateful_Mod: Root CPU, after READ_INPUT_FILE
  Linoz Data:  O3 climatology :                  z*=10, 12, ..., 58                             2.700E-08 1.083E-05
  Linoz Data:  Temperature climatology :         z*=10, 12, ..., 58                             1.859E+02 2.904E+02
  Linoz Data:  Column O3 above box climalology : z*=10, 12, ..., 58                             7.538E-02 3.770E+02
  Linoz Data:  P-L O3 climatology (mr/s):        z*=10, 12, ..., 58                            -1.590E-10 2.835E-11
  Linoz Data:  d(P-L)/dO3 (1/s) :                z*=10, 12, ..., 58                            -8.386E-04 7.556E-09
  Linoz Data:  d(P-L)/dT (mr/K) :                z*=10, 12, ..., 58                            -5.742E-12 4.615E-14
  Linoz Data:  d(P-L)/d(column O3) (mr/DU) :     z*=10, 12, ..., 58                            -1.921E-12 5.038E-10
 ### GIGC_Stateful_Mod: Root CPU, after LINOZ_READ
 %%%%%%%%% GIGC IN-PET GRID SWITCHING HACKS %%%%%%%%%
     (Not very) Proudly brought to you by hplin      
 Some debug information:
 ID:           1
 IM, JM, LM:          15           9          49  will be set as PAR
 Allocs: CMN T GC F
 RC at entry-point:           0
 %%%%%%%%%%%%%%%%%%%%%%%%%%%%%%%%%%%%%%%%%%%%%%%%%%%%
 No need to switch HcoState for ID           1
 Exit RC:            0
 %%%%%%%%%    FINISHED GIGC_Switch_Dims    %%%%%%%%%
 GIGC_Chunk_Init: Received new grid IM, JM, LM =          15           9
          49
     ### GIGC_INIT_SIMULATION: after Input_Opt% setups
     ### GIGC_INIT_SIMULATION: after GC_Init_All
     ### GIGC_INIT_SIMULATION: after GC_Init_Extra
     ### GIGC_INIT_SIMULATION: after INIT_FJX
 # GIGC_CHUNK_MOD: after SV save, ID =           1
 WRFGC chemics_init: Following information regarding Input_Opt% (for all doms)
 After domain           1
 HPC:  T
 LPRT:  F
 DoConv:  T
 DoDryDep:  T
 DoEmis:  T
 DoChem:  T
 DoTurb:  T
 DoWetDep:  T

 tropopause_init: DONE intialized domain            1

 mediation_integrate: med_read_wrf_chem_emissions: Open file wrfchemi_00z_d01
 HOURLY EMISSIONS UPDATE TIME        0.0       0.0
mediation_integrate: med_read_wrf_chem_emissions: Read emissions for time 2018-01-01_00:00:00
open_aux_u : error opening wrffirechemi_d01_2018-01-01_00:00:00 for reading. 100
open_aux_u : error opening wrfchemi_gocart_bg_d01 for reading. 100
d01 2018-01-01_00:00:00 Input data processed for aux input   8 for domain   1
open_aux_u : error opening wrfchemv_d01 for reading. 100
 Tile Strategy is not specified. Assuming 1D-Y
WRF TILE   1 IS    861 IE    875 JS    605 JE    613
WRF NUMBER OF TILES =   1
 max optd  6.9412454E+22
 max taucldi  0.0000000E+00
 max taucldw  0.0000000E+00
 =================================================
 W R F - G C   T I M E R S
    Domain           1 (Units: s)
 =================================================
  => Coupler Component                       0.032
   -- Physics & Parameterization             0.001
   -- Diagnostics Out                        0.000
  => GEOS-Chem Column                        0.000
  ===> Total Chemistry                       0.032
  => WRF                                     0.000
  ===> Total WRF-GC                          0.032
 max optd  6.9412454E+22
 max taucldi  1.0000006E-14
 max taucldw  1.0000006E-14
 %%%%%%%%% GIGC IN-PET GRID SWITCHING HACKS %%%%%%%%%
     (Not very) Proudly brought to you by hplin      
 Some debug information:
 ID:           1
 IM, JM, LM:          15           9          49  will be set as PAR
 Allocs: CMN T GC T
 RC at entry-point:           0
 %%%%%%%%%%%%%%%%%%%%%%%%%%%%%%%%%%%%%%%%%%%%%%%%%%%%
 No need to switch HcoState for ID           1
 Debug HcoState nSpc, NX, NY, NZ         163          15           9          49
 Exit RC:            0
 %%%%%%%%%    FINISHED GIGC_Switch_Dims    %%%%%%%%%
 GIGC_Chunk_Run: Running for in-PET grid #           1
 GIGC_Chunk_Run: Received new grid IM, JM, LM =          15           9
          49
HEMCO: Opening /fsx/HEMCO/BIOFUEL/v2014-07/biofuel.geos.4x5.nc
HEMCO: Opening /fsx/HEMCO/BROMINE/v2015-02/Bromocarb_Liang2010.nc
HEMCO: Opening /fsx/HEMCO/ACET/v2014-07/ACET_seawater.generic.1x1.nc
HEMCO: Opening /fsx/HEMCO/SOILNOX/v2014-07/DepReservoirDefault.nc
HEMCO: Opening /fsx/HEMCO/SOILNOX/v2014-07/soilNOx.landtype.generic.025x025.1L.nc
HEMCO: Opening /fsx/HEMCO/SOILNOX/v2014-07/soilNOx.climate.generic.05x05.nc
HEMCO: Opening /fsx/HEMCO/DUST_DEAD/v2014-07/dst_tibds.geos.4x5.nc
HEMCO: Opening /fsx/HEMCO/DUST_DEAD/v2014-07/GOCART_src_fn.geos.4x5.nc
HEMCO: Opening /fsx/HEMCO/MEGAN/v2018-05/MEGAN2.1_EF.geos.025x03125.nc
HEMCO: Opening /fsx/HEMCO/MEGAN/v2017-07/CLM4_PFT.geos.025x03125.nc
HEMCO: Opening /fsx/HEMCO/TIMEZONES/v2015-02/timezones_voronoi_1x1.nc
HEMCO: Opening /fsx/HEMCO/STRAT/v2015-01/Bry/GEOSCCM_Bry.200701.day.nc
HEMCO: Opening /fsx/HEMCO/STRAT/v2015-01/Bry/GEOSCCM_Bry.200701.night.nc
HEMCO: Opening /fsx/HEMCO/OMOC/v2018-01/OMOC.DJF.01x01.nc
HEMCO: Opening /fsx/HEMCO/OMOC/v2018-01/OMOC.MAM.01x01.nc
HEMCO: Opening /fsx/HEMCO/OMOC/v2018-01/OMOC.JJA.01x01.nc
HEMCO: Opening /fsx/HEMCO/OMOC/v2018-01/OMOC.SON.01x01.nc
HEMCO: Opening /fsx/HEMCO/AnnualScalar/v2014-07/AnnualScalar.geos.1x1.nc
HEMCO: Opening /fsx/HEMCO/EDGARv42/v2015-02/NO/EDGAR_hourly_NOxScal.nc
HEMCO: Opening /fsx/HEMCO/MASKS/v2018-09/EMEP_mask.geos.1x1.20151222.nc
HEMCO: Opening /fsx/HEMCO/MASKS/v2018-09/Canada_mask.geos.1x1.nc
HEMCO: Opening /fsx/HEMCO/MASKS/v2018-09/SE_Asia_mask.generic.1x1.nc
HEMCO: Opening /fsx/HEMCO/MASKS/v2018-09/MIX_Asia_mask.generic.025x025.nc
HEMCO: Opening /fsx/HEMCO/MASKS/v2018-09/CONUS_Mask.01x01.nc
HEMCO: Opening /fsx/HEMCO/MASKS/v2018-09/AF_LANDMASK.geos.05x0666.global.nc
HEMCO: Opening /fsx/HEMCO/MASKS/v2018-09/China_mask.generic.1x1.nc
HEMCO: Opening /fsx/HEMCO/MASKS/v2018-09/India_mask.generic.1x1.nc
HEMCO: Opening /fsx/HEMCO/AnnualScalar/v2014-07/AnnualScalar.geos.1x1.nc
HEMCO: Opening /fsx/HEMCO/NH3/v2014-07/NH3_geos.4x5.nc
HEMCO: Opening /fsx/HEMCO/NH3/v2018-04/NH3_Arctic_seabirds.nc
HEMCO: Opening /fsx/HEMCO/CEDS/v2018-08/2014/NO-em-anthro_CMIP_CEDS_2014.nc
HEMCO: Opening /fsx/HEMCO/CEDS/v2018-08/2014/CO-em-anthro_CMIP_CEDS_2014.nc
HEMCO: Opening /fsx/HEMCO/CEDS/v2018-08/2014/SO2-em-anthro_CMIP_CEDS_2014.nc
HEMCO: Opening /fsx/HEMCO/CEDS/v2018-08/2014/NH3-em-anthro_CMIP_CEDS_2014.nc
HEMCO: Opening /fsx/HEMCO/CEDS/v2018-08/2014/BC-em-anthro_CMIP_CEDS_2014.nc
HEMCO: Opening /fsx/HEMCO/CEDS/v2018-08/2014/OC-em-anthro_CMIP_CEDS_2014.nc
HEMCO: Opening /fsx/HEMCO/CEDS/v2018-08/2014/EOH-em-anthro_CMIP_CEDS_2014.nc
HEMCO: Opening /fsx/HEMCO/CEDS/v2018-08/2014/C2H6-em-anthro_CMIP_CEDS_2014.nc
HEMCO: Opening /fsx/HEMCO/CEDS/v2018-08/2014/C3H8-em-anthro_CMIP_CEDS_2014.nc
HEMCO: Opening /fsx/HEMCO/CEDS/v2018-08/2014/ALK4_butanes-em-anthro_CMIP_CEDS_2014.nc
HEMCO: Opening /fsx/HEMCO/CEDS/v2018-08/2014/ALK4_pentanes-em-anthro_CMIP_CEDS_2014.nc
HEMCO: Opening /fsx/HEMCO/CEDS/v2018-08/2014/ALK4_hexanes-em-anthro_CMIP_CEDS_2014.nc
HEMCO: Opening /fsx/HEMCO/CEDS/v2018-08/2014/PRPE-em-anthro_CMIP_CEDS_2014.nc
HEMCO: Opening /fsx/HEMCO/CEDS/v2018-08/2014/BENZ-em-anthro_CMIP_CEDS_2014.nc
HEMCO: Opening /fsx/HEMCO/CEDS/v2018-08/2014/TOLU-em-anthro_CMIP_CEDS_2014.nc
HEMCO: Opening /fsx/HEMCO/CEDS/v2018-08/2014/XYLE-em-anthro_CMIP_CEDS_2014.nc
HEMCO: Opening /fsx/HEMCO/CEDS/v2018-08/2014/CH2O-em-anthro_CMIP_CEDS_2014.nc
HEMCO: Opening /fsx/HEMCO/CEDS/v2018-08/2014/ALD2-em-anthro_CMIP_CEDS_2014.nc
HEMCO: Opening /fsx/HEMCO/CEDS/v2018-08/2014/MEK-em-anthro_CMIP_CEDS_2014.nc
HEMCO: Opening /fsx/HEMCO/CEDS/v2018-08/2014/HCOOH-em-anthro_CMIP_CEDS_2014.nc
HEMCO: Opening /fsx/HEMCO/C2H6_2010/v2017-05/C2H6_global_anth_biof.201001.nc
HEMCO: Opening /fsx/HEMCO/NEI2011/v2017-02-MM/01/NEI11_0.1x0.1_201101_monmean.nc
HEMCO: Opening /fsx/HEMCO/NEI2011/v2017-02-MM/01/NEI11_0.1x0.1_201101_monmean_egu.nc
HEMCO: Opening /fsx/HEMCO/NEI2011/v2017-02-MM/01/NEI11_0.1x0.1_201101_monmean_egupk.nc
HEMCO: Opening /fsx/HEMCO/NEI2011/v2017-02-MM/01/NEI11_0.1x0.1_201101_monmean_oilgas.nc
HEMCO: Opening /fsx/HEMCO/NEI2011/v2017-02-MM/01/NEI11_0.1x0.1_201101_monmean_othpt.nc
HEMCO: Opening /fsx/HEMCO/NEI2011/v2017-02-MM/01/NEI11_0.1x0.1_201101_monmean_ptnonipm.nc
HEMCO: Opening /fsx/HEMCO/IODINE/v2017-09/CH3I_monthly_emissions_Ordonez_2012_COARDS.nc
HEMCO: Opening /fsx/HEMCO/IODINE/v2017-09/CH2I2_monthly_emissions_Ordonez_2012_COARDS.nc
HEMCO: Opening /fsx/HEMCO/IODINE/v2017-09/CH2ICl_monthly_emissions_Ordonez_2012_COARDS.nc
HEMCO: Opening /fsx/HEMCO/IODINE/v2017-09/CH2IBr_monthly_emissions_Ordonez_2012_COARDS.nc
HEMCO: Opening /fsx/HEMCO/CEDS/v2018-08/2014/CO-em-anthro_CMIP_CEDS_2014.nc
HEMCO: Opening /fsx/HEMCO/CEDS/v2018-08/2014/SO2-em-anthro_CMIP_CEDS_2014.nc
HEMCO: Opening /fsx/HEMCO/CEDS/v2018-08/2014/NH3-em-anthro_CMIP_CEDS_2014.nc
HEMCO: Opening /fsx/HEMCO/CEDS/v2018-08/2014/BC-em-anthro_CMIP_CEDS_2014.nc
HEMCO: Opening /fsx/HEMCO/CEDS/v2018-08/2014/OC-em-anthro_CMIP_CEDS_2014.nc
HEMCO: Opening /fsx/HEMCO/CEDS/v2018-08/2014/EOH-em-anthro_CMIP_CEDS_2014.nc
HEMCO: Opening /fsx/HEMCO/CEDS/v2018-08/2014/C2H6-em-anthro_CMIP_CEDS_2014.nc
HEMCO: Opening /fsx/HEMCO/CEDS/v2018-08/2014/C3H8-em-anthro_CMIP_CEDS_2014.nc
HEMCO: Opening /fsx/HEMCO/CEDS/v2018-08/2014/ALK4_butanes-em-anthro_CMIP_CEDS_2014.nc
HEMCO: Opening /fsx/HEMCO/CEDS/v2018-08/2014/ALK4_pentanes-em-anthro_CMIP_CEDS_2014.nc
HEMCO: Opening /fsx/HEMCO/CEDS/v2018-08/2014/ALK4_hexanes-em-anthro_CMIP_CEDS_2014.nc
HEMCO: Opening /fsx/HEMCO/CEDS/v2018-08/2014/PRPE-em-anthro_CMIP_CEDS_2014.nc
HEMCO: Opening /fsx/HEMCO/CEDS/v2018-08/2014/BENZ-em-anthro_CMIP_CEDS_2014.nc
HEMCO: Opening /fsx/HEMCO/CEDS/v2018-08/2014/TOLU-em-anthro_CMIP_CEDS_2014.nc
HEMCO: Opening /fsx/HEMCO/CEDS/v2018-08/2014/XYLE-em-anthro_CMIP_CEDS_2014.nc
HEMCO: Opening /fsx/HEMCO/CEDS/v2018-08/2014/CH2O-em-anthro_CMIP_CEDS_2014.nc
HEMCO: Opening /fsx/HEMCO/CEDS/v2018-08/2014/ALD2-em-anthro_CMIP_CEDS_2014.nc
HEMCO: Opening /fsx/HEMCO/CEDS/v2018-08/2014/MEK-em-anthro_CMIP_CEDS_2014.nc
HEMCO: Opening /fsx/HEMCO/CEDS/v2018-08/2014/HCOOH-em-anthro_CMIP_CEDS_2014.nc
HEMCO: Opening /fsx/HEMCO/CEDS/v2018-08/2014/NO-em-anthro_CMIP_CEDS_2014.nc
HEMCO: Opening /fsx/HEMCO/AEIC/v2015-01/AEIC.47L.gen.1x1.nc
HEMCO: Opening /fsx/HEMCO/ALD2/v2017-03/resp.geos.2x25.nc
HEMCO: Opening /fsx/HEMCO/DMS/v2015-07/DMS_lana.geos.1x1.nc
HEMCO: Opening /fsx/HEMCO/ALD2/v2017-03/ALD2_seawater.geos.2x25.nc
HEMCO: Opening /fsx/HEMCO/DUST_DEAD/v2014-07/dst_tvbds.geos.4x5.nc
HEMCO: Opening /fsx/HEMCO/DUST_DEAD/v2018-04/PM25FINE_ECLIPSE_2015.geos.2x25.nc
HEMCO: Opening /fsx/HEMCO/SOA/v2014-07/NVOC.geos.1x1.nc
HEMCO: Opening /fsx/HEMCO/GFED4/v2015-10/2016/GFED4_gen.025x025.201601.nc
HEMCO: Opening /fsx/HEMCO/UVALBEDO/v2015-03/uvalbedo.geos.2x25.nc
HEMCO: Opening /fsx/HEMCO/GMI/v2015-02/gmi.clim.ACET.geos5.2x25.nc
HEMCO: Opening /fsx/HEMCO/GMI/v2015-02/gmi.clim.ACTA.geos5.2x25.nc
HEMCO: Opening /fsx/HEMCO/GMI/v2015-02/gmi.clim.ALD2.geos5.2x25.nc
HEMCO: Opening /fsx/HEMCO/GMI/v2015-02/gmi.clim.ALK4.geos5.2x25.nc
HEMCO: Opening /fsx/HEMCO/GMI/v2015-02/gmi.clim.C2H6.geos5.2x25.nc
HEMCO: Opening /fsx/HEMCO/GMI/v2015-02/gmi.clim.C3H8.geos5.2x25.nc
HEMCO: Opening /fsx/HEMCO/GMI/v2015-02/gmi.clim.CCl4.geos5.2x25.nc
HEMCO: Opening /fsx/HEMCO/GMI/v2015-02/gmi.clim.CF2Cl2.geos5.2x25.nc
HEMCO: Opening /fsx/HEMCO/GMI/v2015-02/gmi.clim.CF2ClBr.geos5.2x25.nc
HEMCO: Opening /fsx/HEMCO/GMI/v2015-02/gmi.clim.CFC113.geos5.2x25.nc
HEMCO: Opening /fsx/HEMCO/GMI/v2015-02/gmi.clim.CFC114.geos5.2x25.nc
HEMCO: Opening /fsx/HEMCO/GMI/v2015-02/gmi.clim.CFC115.geos5.2x25.nc
HEMCO: Opening /fsx/HEMCO/GMI/v2015-02/gmi.clim.CFCl3.geos5.2x25.nc
HEMCO: Opening /fsx/HEMCO/GMI/v2015-02/gmi.clim.CH2O.geos5.2x25.nc
HEMCO: Opening /fsx/HEMCO/GMI/v2015-02/gmi.clim.CH3CCl3.geos5.2x25.nc
HEMCO: Opening /fsx/HEMCO/GMI/v2015-02/gmi.clim.CH3Cl.geos5.2x25.nc
HEMCO: Opening /fsx/HEMCO/GMI/v2015-02/gmi.clim.CH4.geos5.2x25.nc
HEMCO: Opening /fsx/HEMCO/GMI/v2015-02/gmi.clim.CO.geos5.2x25.nc
HEMCO: Opening /fsx/HEMCO/GMI/v2015-02/gmi.clim.Cl.geos5.2x25.nc
HEMCO: Opening /fsx/HEMCO/GMI/v2015-02/gmi.clim.Cl2.geos5.2x25.nc
HEMCO: Opening /fsx/HEMCO/GMI/v2015-02/gmi.clim.Cl2O2.geos5.2x25.nc
HEMCO: Opening /fsx/HEMCO/GMI/v2015-02/gmi.clim.ClO.geos5.2x25.nc
HEMCO: Opening /fsx/HEMCO/GMI/v2015-02/gmi.clim.EOH.geos5.2x25.nc
HEMCO: Opening /fsx/HEMCO/GMI/v2015-02/gmi.clim.GLYC.geos5.2x25.nc
HEMCO: Opening /fsx/HEMCO/GMI/v2015-02/gmi.clim.GLYX.geos5.2x25.nc
HEMCO: Opening /fsx/HEMCO/GMI/v2015-02/gmi.clim.H2402.geos5.2x25.nc
HEMCO: Opening /fsx/HEMCO/GMI/v2015-02/gmi.clim.H2O.geos5.2x25.nc
HEMCO: Opening /fsx/HEMCO/GMI/v2015-02/gmi.clim.H2O2.geos5.2x25.nc
HEMCO: Opening /fsx/HEMCO/GMI/v2015-02/gmi.clim.HAC.geos5.2x25.nc
HEMCO: Opening /fsx/HEMCO/GMI/v2015-02/gmi.clim.HCFC141b.geos5.2x25.nc
HEMCO: Opening /fsx/HEMCO/GMI/v2015-02/gmi.clim.HCFC142b.geos5.2x25.nc
HEMCO: Opening /fsx/HEMCO/GMI/v2015-02/gmi.clim.HCFC22.geos5.2x25.nc
HEMCO: Opening /fsx/HEMCO/GMI/v2015-02/gmi.clim.HCOOH.geos5.2x25.20170108.nc
HEMCO: Opening /fsx/HEMCO/GMI/v2015-02/gmi.clim.HCl.geos5.2x25.nc
HEMCO: Opening /fsx/HEMCO/GMI/v2015-02/gmi.clim.HNO2.geos5.2x25.nc
HEMCO: Opening /fsx/HEMCO/GMI/v2015-02/gmi.clim.HNO3.geos5.2x25.nc
HEMCO: Opening /fsx/HEMCO/GMI/v2015-02/gmi.clim.HNO4.geos5.2x25.nc
HEMCO: Opening /fsx/HEMCO/GMI/v2015-02/gmi.clim.HOCl.geos5.2x25.nc
HEMCO: Opening /fsx/HEMCO/GMI/v2015-02/gmi.clim.ISN1.geos5.2x25.nc
HEMCO: Opening /fsx/HEMCO/GMI/v2015-02/gmi.clim.ISOP.geos5.2x25.nc
HEMCO: Opening /fsx/HEMCO/GMI/v2015-02/gmi.clim.MACR.geos5.2x25.nc
HEMCO: Opening /fsx/HEMCO/GMI/v2015-02/gmi.clim.MAP.geos5.2x25.nc
HEMCO: Opening /fsx/HEMCO/GMI/v2015-02/gmi.clim.MEK.geos5.2x25.nc
HEMCO: Opening /fsx/HEMCO/GMI/v2015-02/gmi.clim.MGLY.geos5.2x25.nc
HEMCO: Opening /fsx/HEMCO/GMI/v2015-02/gmi.clim.MP.geos5.2x25.nc
HEMCO: Opening /fsx/HEMCO/GMI/v2015-02/gmi.clim.MVK.geos5.2x25.nc
HEMCO: Opening /fsx/HEMCO/GMI/v2015-02/gmi.clim.N2O.geos5.2x25.nc
HEMCO: Opening /fsx/HEMCO/GMI/v2015-02/gmi.clim.N2O5.geos5.2x25.nc
HEMCO: Opening /fsx/HEMCO/GMI/v2015-02/gmi.clim.NO.geos5.2x25.nc
HEMCO: Opening /fsx/HEMCO/GMI/v2015-02/gmi.clim.NO2.geos5.2x25.nc
HEMCO: Opening /fsx/HEMCO/GMI/v2015-02/gmi.clim.NO3.geos5.2x25.nc
HEMCO: Opening /fsx/HEMCO/GMI/v2015-02/gmi.clim.O3.geos5.2x25.nc
HEMCO: Opening /fsx/HEMCO/GMI/v2015-02/gmi.clim.OClO.geos5.2x25.nc
HEMCO: Opening /fsx/HEMCO/GMI/v2015-02/gmi.clim.PAN.geos5.2x25.nc
HEMCO: Opening /fsx/HEMCO/GMI/v2015-02/gmi.clim.NPMN.geos5.2x25.nc
HEMCO: Opening /fsx/HEMCO/GMI/v2015-02/gmi.clim.IPMN.geos5.2x25.nc
HEMCO: Opening /fsx/HEMCO/GMI/v2015-02/gmi.clim.PPN.geos5.2x25.nc
HEMCO: Opening /fsx/HEMCO/GMI/v2015-02/gmi.clim.PRPE.geos5.2x25.nc
HEMCO: Opening /fsx/HEMCO/GMI/v2015-02/gmi.clim.R4N2.geos5.2x25.nc
HEMCO: Opening /fsx/HEMCO/GMI/v2015-02/gmi.clim.RCHO.geos5.2x25.nc
HEMCO: Opening /fsx/HEMCO/GMI/v2015-02/gmi.clim.RIPA.geos5.2x25.nc
HEMCO: Opening /fsx/HEMCO/GMI/v2015-02/gmi.clim.RIPB.geos5.2x25.nc
HEMCO: Opening /fsx/HEMCO/GMI/v2015-02/gmi.clim.RIPD.geos5.2x25.nc
HEMCO: Opening /fsx/HEMCO/GMI/v2015-02/gmi.clim.OH.geos5.2x25.nc
HEMCO: Opening /fsx/HEMCO/NOAA_GMD/v2018-01/monthly.gridded.surface.methane.1979-2020.1x1.nc
HEMCO: Opening /fsx/HEMCO/GEIA/v2014-07/GEIA_monthscal.generic.1x1.nc
HEMCO: Opening /fsx/HEMCO/EMEP/v2015-03/EMEP.Seasonal.geos.1x1.nc
HEMCO: Opening /fsx/HEMCO/BROMINE/v2015-02/BromoCarb_Season.nc
HEMCO: Opening /fsx/HEMCO/EDGARv43/v2016-11/EDGAR_v43.Seasonal.1x1.nc
HEMCO: Opening /fsx/HEMCO/NEI2005/v2014-09/scaling/NEI99.dow.geos.1x1.nc
HEMCO: Opening /fsx/HEMCO/VOLCANO/v2015-02/2009/volc_so2_gen.1x1.47L.200901.nc
HEMCO: Opening /fsx/HEMCO/SOILNOX/v2014-07/soilNOx.fert_res.generic.05x05.nc
 vdinti: pbl height will be limited to bottom           25  model levels. top is
     431.250100000000       hpa
 =================================================
 W R F - G C   T I M E R S
    Domain           1 (Units: s)
 =================================================
  => Coupler Component                       0.055
   -- Physics & Parameterization             0.010
   -- Diagnostics Out                        0.000
  => GEOS-Chem Column                      138.129
  ===> Total Chemistry                     138.184
  => WRF                                    17.516
  ===> Total WRF-GC                        155.700
 max optd  1.9364301E+31
 max taucldi  1.9105897E-08
 max taucldw  1.9192164E-08
 Switching is not necessary as we are already
 in the right domain!
 GIGC_Chunk_Run: Running for in-PET grid #           1
 GIGC_Chunk_Run: Received new grid IM, JM, LM =          15           9
          49
 =================================================
 W R F - G C   T I M E R S
    Domain           1 (Units: s)
 =================================================
  => Coupler Component                       0.088
   -- Physics & Parameterization             0.019
   -- Diagnostics Out                        0.000
  => GEOS-Chem Column                      139.221
  ===> Total Chemistry                     139.309
  => WRF                                    52.984
  ===> Total WRF-GC                        192.293
 max optd  1.9364301E+31
 max taucldi  3.5894026E-08
 max taucldw  3.6527549E-08
 Switching is not necessary as we are already
 in the right domain!
 GIGC_Chunk_Run: Running for in-PET grid #           1
 GIGC_Chunk_Run: Received new grid IM, JM, LM =          15           9
          49
 =================================================
 W R F - G C   T I M E R S
    Domain           1 (Units: s)
 =================================================
  => Coupler Component                       0.122
   -- Physics & Parameterization             0.028
   -- Diagnostics Out                        0.000
  => GEOS-Chem Column                      140.249
  ===> Total Chemistry                     140.371
  => WRF                                    73.743
  ===> Total WRF-GC                        214.114
 max optd  1.9364301E+31
 max taucldi  5.3563507E-08
 max taucldw  5.5024397E-08
 Switching is not necessary as we are already
 in the right domain!
 GIGC_Chunk_Run: Running for in-PET grid #           1
 GIGC_Chunk_Run: Received new grid IM, JM, LM =          15           9
          49
 =================================================
 W R F - G C   T I M E R S
    Domain           1 (Units: s)
 =================================================
  => Coupler Component                       0.157
   -- Physics & Parameterization             0.037
   -- Diagnostics Out                        0.000
  => GEOS-Chem Column                      141.264
  ===> Total Chemistry                     141.422
  => WRF                                    92.812
  ===> Total WRF-GC                        234.233
 max optd  1.9364301E+31
 max taucldi  7.0344555E-08
 max taucldw  7.3441484E-08
 Switching is not necessary as we are already
 in the right domain!
 GIGC_Chunk_Run: Running for in-PET grid #           1
 GIGC_Chunk_Run: Received new grid IM, JM, LM =          15           9
          49
 =================================================
 W R F - G C   T I M E R S
    Domain           1 (Units: s)
 =================================================
  => Coupler Component                       0.190
   -- Physics & Parameterization             0.046
   -- Diagnostics Out                        0.000
  => GEOS-Chem Column                      142.290
  ===> Total Chemistry                     142.480
  => WRF                                   111.422
  ===> Total WRF-GC                        253.902
 max optd  1.9364301E+31
 max taucldi  8.6073356E-08
 max taucldw  9.1429563E-08
 Switching is not necessary as we are already
 in the right domain!
 GIGC_Chunk_Run: Running for in-PET grid #           1
 GIGC_Chunk_Run: Received new grid IM, JM, LM =          15           9
          49
 =================================================
 W R F - G C   T I M E R S
    Domain           1 (Units: s)
 =================================================
  => Coupler Component                       0.223
   -- Physics & Parameterization             0.056
   -- Diagnostics Out                        0.000
  => GEOS-Chem Column                      143.316
  ===> Total Chemistry                     143.539
  => WRF                                   129.912
  ===> Total WRF-GC                        273.451
 max optd  1.9364301E+31
 max taucldi  1.0068446E-07
 max taucldw  1.0880400E-07
 Switching is not necessary as we are already
 in the right domain!
 GIGC_Chunk_Run: Running for in-PET grid #           1
 GIGC_Chunk_Run: Received new grid IM, JM, LM =          15           9
          49
 =================================================
 W R F - G C   T I M E R S
    Domain           1 (Units: s)
 =================================================
  => Coupler Component                       0.261
   -- Physics & Parameterization             0.065
   -- Diagnostics Out                        0.000
  => GEOS-Chem Column                      144.336
  ===> Total Chemistry                     144.597
  => WRF                                   148.381
  ===> Total WRF-GC                        292.978
 max optd  1.9364301E+31
 max taucldi  1.1430189E-07
 max taucldw  1.2552788E-07
 Switching is not necessary as we are already
 in the right domain!
 GIGC_Chunk_Run: Running for in-PET grid #           1
 GIGC_Chunk_Run: Received new grid IM, JM, LM =          15           9
          49
 =================================================
 W R F - G C   T I M E R S
    Domain           1 (Units: s)
 =================================================
  => Coupler Component                       0.294
   -- Physics & Parameterization             0.074
   -- Diagnostics Out                        0.000
  => GEOS-Chem Column                      145.364
  ===> Total Chemistry                     145.659
  => WRF                                   166.789
  ===> Total WRF-GC                        312.447
 max optd  1.9364301E+31
 max taucldi  1.2699402E-07
 max taucldw  1.4153613E-07
 Switching is not necessary as we are already
 in the right domain!
 GIGC_Chunk_Run: Running for in-PET grid #           1
 GIGC_Chunk_Run: Received new grid IM, JM, LM =          15           9
          49
 =================================================
 W R F - G C   T I M E R S
    Domain           1 (Units: s)
 =================================================
  => Coupler Component                       0.331
   -- Physics & Parameterization             0.083
   -- Diagnostics Out                        0.000
  => GEOS-Chem Column                      146.382
  ===> Total Chemistry                     146.713
  => WRF                                   185.191
  ===> Total WRF-GC                        331.904
 max optd  1.9364301E+31
 max taucldi  1.3890862E-07
 max taucldw  1.5697923E-07
 Switching is not necessary as we are already
 in the right domain!
 GIGC_Chunk_Run: Running for in-PET grid #           1
 GIGC_Chunk_Run: Received new grid IM, JM, LM =          15           9
          49
 =================================================
 W R F - G C   T I M E R S
    Domain           1 (Units: s)
 =================================================
  => Coupler Component                       0.365
   -- Physics & Parameterization             0.092
   -- Diagnostics Out                        0.000
  => GEOS-Chem Column                      147.409
  ===> Total Chemistry                     147.774
  => WRF                                   203.666
  ===> Total WRF-GC                        351.440
 max optd  1.9364301E+31
 max taucldi  1.5037342E-07
 max taucldw  1.7167933E-07
 Switching is not necessary as we are already
 in the right domain!
 GIGC_Chunk_Run: Running for in-PET grid #           1
 GIGC_Chunk_Run: Received new grid IM, JM, LM =          15           9
          49
 =================================================
 W R F - G C   T I M E R S
    Domain           1 (Units: s)
 =================================================
  => Coupler Component                       0.399
   -- Physics & Parameterization             0.101
   -- Diagnostics Out                        0.000
  => GEOS-Chem Column                      148.436
  ===> Total Chemistry                     148.834
  => WRF                                   222.053
  ===> Total WRF-GC                        370.887
 max optd  1.9364301E+31
 max taucldi  1.6137514E-07
 max taucldw  1.8579762E-07
 Switching is not necessary as we are already
 in the right domain!
 GIGC_Chunk_Run: Running for in-PET grid #           1
 GIGC_Chunk_Run: Received new grid IM, JM, LM =          15           9
          49
 =================================================
 W R F - G C   T I M E R S
    Domain           1 (Units: s)
 =================================================
  => Coupler Component                       0.434
   -- Physics & Parameterization             0.110
   -- Diagnostics Out                        0.000
  => GEOS-Chem Column                      149.458
  ===> Total Chemistry                     149.892
  => WRF                                   240.324
  ===> Total WRF-GC                        390.216
 HOURLY EMISSIONS UPDATE TIME     3600.0       0.0
mediation_integrate: med_read_wrf_chem_emissions: Read emissions for time 2018-01-01_01:00:00
 max optd  1.9364301E+31
 max taucldi  1.7307767E-07
 max taucldw  1.9957035E-07
 Switching is not necessary as we are already
 in the right domain!
 GIGC_Chunk_Run: Running for in-PET grid #           1
 GIGC_Chunk_Run: Received new grid IM, JM, LM =          15           9
          49
 =================================================
 W R F - G C   T I M E R S
    Domain           1 (Units: s)
 =================================================
  => Coupler Component                       0.468
   -- Physics & Parameterization             0.120
   -- Diagnostics Out                        0.000
  => GEOS-Chem Column                      150.478
  ===> Total Chemistry                     150.945
  => WRF                                   258.676
  ===> Total WRF-GC                        409.621
 max optd  1.9364301E+31
 max taucldi  1.8675078E-07
 max taucldw  2.1459734E-07
 Switching is not necessary as we are already
 in the right domain!
 GIGC_Chunk_Run: Running for in-PET grid #           1
 GIGC_Chunk_Run: Received new grid IM, JM, LM =          15           9
          49
 =================================================
 W R F - G C   T I M E R S
    Domain           1 (Units: s)
 =================================================
  => Coupler Component                       0.502
   -- Physics & Parameterization             0.129
   -- Diagnostics Out                        0.000
  => GEOS-Chem Column                      151.510
  ===> Total Chemistry                     152.013
  => WRF                                   277.023
  ===> Total WRF-GC                        429.036
 max optd  1.9364301E+31
 max taucldi  2.0041196E-07
 max taucldw  2.3210690E-07
 Switching is not necessary as we are already
 in the right domain!
 GIGC_Chunk_Run: Running for in-PET grid #           1
 GIGC_Chunk_Run: Received new grid IM, JM, LM =          15           9
          49
 =================================================
 W R F - G C   T I M E R S
    Domain           1 (Units: s)
 =================================================
  => Coupler Component                       0.541
   -- Physics & Parameterization             0.138
   -- Diagnostics Out                        0.000
  => GEOS-Chem Column                      152.536
  ===> Total Chemistry                     153.077
  => WRF                                   295.237
  ===> Total WRF-GC                        448.314
 max optd  1.9364301E+31
 max taucldi  2.1391435E-07
 max taucldw  2.4900993E-07
 Switching is not necessary as we are already
 in the right domain!
 GIGC_Chunk_Run: Running for in-PET grid #           1
 GIGC_Chunk_Run: Received new grid IM, JM, LM =          15           9
          49
 =================================================
 W R F - G C   T I M E R S
    Domain           1 (Units: s)
 =================================================
  => Coupler Component                       0.578
   -- Physics & Parameterization             0.147
   -- Diagnostics Out                        0.000
  => GEOS-Chem Column                      153.558
  ===> Total Chemistry                     154.135
  => WRF                                   313.538
  ===> Total WRF-GC                        467.674
 max optd  1.9364301E+31
 max taucldi  2.2703141E-07
 max taucldw  2.6468663E-07
 Switching is not necessary as we are already
 in the right domain!
 GIGC_Chunk_Run: Running for in-PET grid #           1
 GIGC_Chunk_Run: Received new grid IM, JM, LM =          15           9
          49
 =================================================
 W R F - G C   T I M E R S
    Domain           1 (Units: s)
 =================================================
  => Coupler Component                       0.613
   -- Physics & Parameterization             0.156
   -- Diagnostics Out                        0.000
  => GEOS-Chem Column                      154.584
  ===> Total Chemistry                     155.197
  => WRF                                   331.806
  ===> Total WRF-GC                        487.003
 max optd  1.9364301E+31
 max taucldi  2.3947018E-07
 max taucldw  2.7896493E-07
 Switching is not necessary as we are already
 in the right domain!
 GIGC_Chunk_Run: Running for in-PET grid #           1
 GIGC_Chunk_Run: Received new grid IM, JM, LM =          15           9
          49
 =================================================
 W R F - G C   T I M E R S
    Domain           1 (Units: s)
 =================================================
  => Coupler Component                       0.647
   -- Physics & Parameterization             0.165
   -- Diagnostics Out                        0.000
  => GEOS-Chem Column                      155.611
  ===> Total Chemistry                     156.258
  => WRF                                   350.034
  ===> Total WRF-GC                        506.292
 max optd  1.9364301E+31
 max taucldi  2.5114289E-07
 max taucldw  2.9175825E-07
 Switching is not necessary as we are already
 in the right domain!
 GIGC_Chunk_Run: Running for in-PET grid #           1
 GIGC_Chunk_Run: Received new grid IM, JM, LM =          15           9
          49
 =================================================
 W R F - G C   T I M E R S
    Domain           1 (Units: s)
 =================================================
  => Coupler Component                       0.682
   -- Physics & Parameterization             0.175
   -- Diagnostics Out                        0.000
  => GEOS-Chem Column                      156.635
  ===> Total Chemistry                     157.317
  => WRF                                   368.309
  ===> Total WRF-GC                        525.626
 max optd  1.9364301E+31
 max taucldi  2.6202329E-07
 max taucldw  3.0314973E-07
 Switching is not necessary as we are already
 in the right domain!
 GIGC_Chunk_Run: Running for in-PET grid #           1
 GIGC_Chunk_Run: Received new grid IM, JM, LM =          15           9
          49
 =================================================
 W R F - G C   T I M E R S
    Domain           1 (Units: s)
 =================================================
  => Coupler Component                       0.724
   -- Physics & Parameterization             0.184
   -- Diagnostics Out                        0.000
  => GEOS-Chem Column                      157.641
  ===> Total Chemistry                     158.365
  => WRF                                   386.694
  ===> Total WRF-GC                        545.059
 max optd  1.9364301E+31
 max taucldi  2.7458432E-07
 max taucldw  3.2123427E-07
 Switching is not necessary as we are already
 in the right domain!
 GIGC_Chunk_Run: Running for in-PET grid #           1
 GIGC_Chunk_Run: Received new grid IM, JM, LM =          15           9
          49
 =================================================
 W R F - G C   T I M E R S
    Domain           1 (Units: s)
 =================================================
  => Coupler Component                       0.763
   -- Physics & Parameterization             0.193
   -- Diagnostics Out                        0.000
  => GEOS-Chem Column                      158.658
  ===> Total Chemistry                     159.421
  => WRF                                   404.829
  ===> Total WRF-GC                        564.250
 max optd  1.9364301E+31
 max taucldi  2.8736079E-07
 max taucldw  3.3835445E-07
 Switching is not necessary as we are already
 in the right domain!
 GIGC_Chunk_Run: Running for in-PET grid #           1
 GIGC_Chunk_Run: Received new grid IM, JM, LM =          15           9
          49
 =================================================
 W R F - G C   T I M E R S
    Domain           1 (Units: s)
 =================================================
  => Coupler Component                       0.792
   -- Physics & Parameterization             0.202
   -- Diagnostics Out                        0.000
  => GEOS-Chem Column                      159.666
  ===> Total Chemistry                     160.459
  => WRF                                   423.085
  ===> Total WRF-GC                        583.544
 max optd  1.9364301E+31
 max taucldi  2.9925880E-07
 max taucldw  3.5374444E-07
 Switching is not necessary as we are already
 in the right domain!
 GIGC_Chunk_Run: Running for in-PET grid #           1
 GIGC_Chunk_Run: Received new grid IM, JM, LM =          15           9
          49
 =================================================
 W R F - G C   T I M E R S
    Domain           1 (Units: s)
 =================================================
  => Coupler Component                       0.828
   -- Physics & Parameterization             0.211
   -- Diagnostics Out                        0.000
  => GEOS-Chem Column                      160.688
  ===> Total Chemistry                     161.516
  => WRF                                   441.399
  ===> Total WRF-GC                        602.915
 max optd  1.9364301E+31
 max taucldi  3.1036399E-07
 max taucldw  3.6741974E-07
 Switching is not necessary as we are already
 in the right domain!
 GIGC_Chunk_Run: Running for in-PET grid #           1
 GIGC_Chunk_Run: Received new grid IM, JM, LM =          15           9
          49
 =================================================
 W R F - G C   T I M E R S
    Domain           1 (Units: s)
 =================================================
  => Coupler Component                       0.858
   -- Physics & Parameterization             0.221
   -- Diagnostics Out                        0.000
  => GEOS-Chem Column                      161.698
  ===> Total Chemistry                     162.557
  => WRF                                   459.636
  ===> Total WRF-GC                        622.193
 HOURLY EMISSIONS UPDATE TIME     7200.0       0.0
mediation_integrate: med_read_wrf_chem_emissions: Read emissions for time 2018-01-01_02:00:00
 max optd  1.9364301E+31
 max taucldi  3.2074283E-07
 max taucldw  3.7984802E-07
 Switching is not necessary as we are already
 in the right domain!
 GIGC_Chunk_Run: Running for in-PET grid #           1
 GIGC_Chunk_Run: Received new grid IM, JM, LM =          15           9
          49
 =================================================
 W R F - G C   T I M E R S
    Domain           1 (Units: s)
 =================================================
  => Coupler Component                       0.895
   -- Physics & Parameterization             0.230
   -- Diagnostics Out                        0.000
  => GEOS-Chem Column                      162.723
  ===> Total Chemistry                     163.618
  => WRF                                   477.869
  ===> Total WRF-GC                        641.487
 max optd  1.9364301E+31
 max taucldi  3.3025736E-07
 max taucldw  3.9107721E-07
 Switching is not necessary as we are already
 in the right domain!
 GIGC_Chunk_Run: Running for in-PET grid #           1
 GIGC_Chunk_Run: Received new grid IM, JM, LM =          15           9
          49
 =================================================
 W R F - G C   T I M E R S
    Domain           1 (Units: s)
 =================================================
  => Coupler Component                       0.936
   -- Physics & Parameterization             0.239
   -- Diagnostics Out                        0.000
  => GEOS-Chem Column                      163.734
  ===> Total Chemistry                     164.670
  => WRF                                   496.114
  ===> Total WRF-GC                        660.784
 max optd  1.9364301E+31
 max taucldi  3.3909726E-07
 max taucldw  4.0155714E-07
 Switching is not necessary as we are already
 in the right domain!
 GIGC_Chunk_Run: Running for in-PET grid #           1
 GIGC_Chunk_Run: Received new grid IM, JM, LM =          15           9
          49
 =================================================
 W R F - G C   T I M E R S
    Domain           1 (Units: s)
 =================================================
  => Coupler Component                       0.974
   -- Physics & Parameterization             0.248
   -- Diagnostics Out                        0.000
  => GEOS-Chem Column                      164.764
  ===> Total Chemistry                     165.738
  => WRF                                   514.277
  ===> Total WRF-GC                        680.016
 max optd  1.9364301E+31
 max taucldi  9.3161489E-04
 max taucldw  4.1197507E-07
 Switching is not necessary as we are already
 in the right domain!
 GIGC_Chunk_Run: Running for in-PET grid #           1
 GIGC_Chunk_Run: Received new grid IM, JM, LM =          15           9
          49
 =================================================
 W R F - G C   T I M E R S
    Domain           1 (Units: s)
 =================================================
  => Coupler Component                       1.011
   -- Physics & Parameterization             0.257
   -- Diagnostics Out                        0.000
  => GEOS-Chem Column                      165.791
  ===> Total Chemistry                     166.802
  => WRF                                   532.407
  ===> Total WRF-GC                        699.209
 max optd  1.9364301E+31
 max taucldi  1.9122589E-03
 max taucldw  4.2290023E-07
 Switching is not necessary as we are already
 in the right domain!
 GIGC_Chunk_Run: Running for in-PET grid #           1
 GIGC_Chunk_Run: Received new grid IM, JM, LM =          15           9
          49
 =================================================
 W R F - G C   T I M E R S
    Domain           1 (Units: s)
 =================================================
  => Coupler Component                       1.044
   -- Physics & Parameterization             0.266
   -- Diagnostics Out                        0.000
  => GEOS-Chem Column                      166.831
  ===> Total Chemistry                     167.875
  => WRF                                   550.579
  ===> Total WRF-GC                        718.454
 max optd  1.9364301E+31
 max taucldi  2.3215786E-03
 max taucldw  4.3506725E-07
 Switching is not necessary as we are already
 in the right domain!
 GIGC_Chunk_Run: Running for in-PET grid #           1
 GIGC_Chunk_Run: Received new grid IM, JM, LM =          15           9
          49
 =================================================
 W R F - G C   T I M E R S
    Domain           1 (Units: s)
 =================================================
  => Coupler Component                       1.079
   -- Physics & Parameterization             0.275
   -- Diagnostics Out                        0.000
  => GEOS-Chem Column                      167.864
  ===> Total Chemistry                     168.943
  => WRF                                   568.736
  ===> Total WRF-GC                        737.679
 max optd  1.9364301E+31
 max taucldi  2.6145156E-03
 max taucldw  4.4697165E-07
 Switching is not necessary as we are already
 in the right domain!
 GIGC_Chunk_Run: Running for in-PET grid #           1
 GIGC_Chunk_Run: Received new grid IM, JM, LM =          15           9
          49
 =================================================
 W R F - G C   T I M E R S
    Domain           1 (Units: s)
 =================================================
  => Coupler Component                       1.112
   -- Physics & Parameterization             0.284
   -- Diagnostics Out                        0.000
  => GEOS-Chem Column                      168.900
  ===> Total Chemistry                     170.013
  => WRF                                   586.907
  ===> Total WRF-GC                        756.920
 max optd  1.9364301E+31
 max taucldi  2.9297050E-03
 max taucldw  4.5870897E-07
 Switching is not necessary as we are already
 in the right domain!
 GIGC_Chunk_Run: Running for in-PET grid #           1
 GIGC_Chunk_Run: Received new grid IM, JM, LM =          15           9
          49
 =================================================
 W R F - G C   T I M E R S
    Domain           1 (Units: s)
 =================================================
  => Coupler Component                       1.152
   -- Physics & Parameterization             0.293
   -- Diagnostics Out                        0.000
  => GEOS-Chem Column                      169.915
  ===> Total Chemistry                     171.067
  => WRF                                   605.013
  ===> Total WRF-GC                        776.079
 max optd  1.9364301E+31
 max taucldi  3.4816449E-03
 max taucldw  4.7067502E-07
 Switching is not necessary as we are already
 in the right domain!
 GIGC_Chunk_Run: Running for in-PET grid #           1
 GIGC_Chunk_Run: Received new grid IM, JM, LM =          15           9
          49
 =================================================
 W R F - G C   T I M E R S
    Domain           1 (Units: s)
 =================================================
  => Coupler Component                       1.189
   -- Physics & Parameterization             0.303
   -- Diagnostics Out                        0.000
  => GEOS-Chem Column                      170.933
  ===> Total Chemistry                     172.122
  => WRF                                   623.141
  ===> Total WRF-GC                        795.262
 max optd  1.9364301E+31
 max taucldi  4.8751966E-03
 max taucldw  4.8309892E-07
 Switching is not necessary as we are already
 in the right domain!
 GIGC_Chunk_Run: Running for in-PET grid #           1
 GIGC_Chunk_Run: Received new grid IM, JM, LM =          15           9
          49
 =================================================
 W R F - G C   T I M E R S
    Domain           1 (Units: s)
 =================================================
  => Coupler Component                       1.221
   -- Physics & Parameterization             0.312
   -- Diagnostics Out                        0.000
  => GEOS-Chem Column                      171.963
  ===> Total Chemistry                     173.184
  => WRF                                   641.334
  ===> Total WRF-GC                        814.519
 max optd  1.9364301E+31
 max taucldi  5.6613418E-03
 max taucldw  4.9583974E-07
 Switching is not necessary as we are already
 in the right domain!
 GIGC_Chunk_Run: Running for in-PET grid #           1
 GIGC_Chunk_Run: Received new grid IM, JM, LM =          15           9
          49
 =================================================
 W R F - G C   T I M E R S
    Domain           1 (Units: s)
 =================================================
  => Coupler Component                       1.252
   -- Physics & Parameterization             0.321
   -- Diagnostics Out                        0.000
  => GEOS-Chem Column                      173.001
  ===> Total Chemistry                     174.253
  => WRF                                   659.422
  ===> Total WRF-GC                        833.675
 max optd  1.9364301E+31
 max taucldi  6.5679140E-03
 max taucldw  5.0924160E-07
 Switching is not necessary as we are already
 in the right domain!
 GIGC_Chunk_Run: Running for in-PET grid #           1
 GIGC_Chunk_Run: Received new grid IM, JM, LM =          15           9
          49
 =================================================
 W R F - G C   T I M E R S
    Domain           1 (Units: s)
 =================================================
  => Coupler Component                       1.288
   -- Physics & Parameterization             0.330
   -- Diagnostics Out                        0.000
  => GEOS-Chem Column                      174.032
  ===> Total Chemistry                     175.320
  => WRF                                   677.521
  ===> Total WRF-GC                        852.841
 HOURLY EMISSIONS UPDATE TIME    10800.0       0.0
mediation_integrate: med_read_wrf_chem_emissions: Read emissions for time 2018-01-01_03:00:00
 max optd  1.9364301E+31
 max taucldi  7.3849666E-03
 max taucldw  5.2303608E-07
 Switching is not necessary as we are already
 in the right domain!
 GIGC_Chunk_Run: Running for in-PET grid #           1
 GIGC_Chunk_Run: Received new grid IM, JM, LM =          15           9
          49
 =================================================
 W R F - G C   T I M E R S
    Domain           1 (Units: s)
 =================================================
  => Coupler Component                       1.322
   -- Physics & Parameterization             0.340
   -- Diagnostics Out                        0.000
  => GEOS-Chem Column                      175.073
  ===> Total Chemistry                     176.394
  => WRF                                   695.677
  ===> Total WRF-GC                        872.072
 max optd  1.9364301E+31
 max taucldi  8.3477069E-03
 max taucldw  5.3662785E-07
 Switching is not necessary as we are already
 in the right domain!
 GIGC_Chunk_Run: Running for in-PET grid #           1
 GIGC_Chunk_Run: Received new grid IM, JM, LM =          15           9
          49
 =================================================
 W R F - G C   T I M E R S
    Domain           1 (Units: s)
 =================================================
  => Coupler Component                       1.355
   -- Physics & Parameterization             0.349
   -- Diagnostics Out                        0.000
  => GEOS-Chem Column                      176.107
  ===> Total Chemistry                     177.461
  => WRF                                   713.782
  ===> Total WRF-GC                        891.243
 max optd  1.9364301E+31
 max taucldi  9.2092147E-03
 max taucldw  5.4943439E-07
 Switching is not necessary as we are already
 in the right domain!
 GIGC_Chunk_Run: Running for in-PET grid #           1
 GIGC_Chunk_Run: Received new grid IM, JM, LM =          15           9
          49
 =================================================
 W R F - G C   T I M E R S
    Domain           1 (Units: s)
 =================================================
  => Coupler Component                       1.387
   -- Physics & Parameterization             0.358
   -- Diagnostics Out                        0.000
  => GEOS-Chem Column                      177.161
  ===> Total Chemistry                     178.548
  => WRF                                   731.909
  ===> Total WRF-GC                        910.457
 max optd  1.9364301E+31
 max taucldi  9.4100228E-03
 max taucldw  5.6137253E-07
 Switching is not necessary as we are already
 in the right domain!
 GIGC_Chunk_Run: Running for in-PET grid #           1
 GIGC_Chunk_Run: Received new grid IM, JM, LM =          15           9
          49
 =================================================
 W R F - G C   T I M E R S
    Domain           1 (Units: s)
 =================================================
  => Coupler Component                       1.419
   -- Physics & Parameterization             0.368
   -- Diagnostics Out                        0.000
  => GEOS-Chem Column                      178.200
  ===> Total Chemistry                     179.619
  => WRF                                   750.009
  ===> Total WRF-GC                        929.628
 max optd  1.9364301E+31
 max taucldi  1.0529382E-02
 max taucldw  5.7254084E-07
 Switching is not necessary as we are already
 in the right domain!
 GIGC_Chunk_Run: Running for in-PET grid #           1
 GIGC_Chunk_Run: Received new grid IM, JM, LM =          15           9
          49
 =================================================
 W R F - G C   T I M E R S
    Domain           1 (Units: s)
 =================================================
  => Coupler Component                       1.454
   -- Physics & Parameterization             0.377
   -- Diagnostics Out                        0.000
  => GEOS-Chem Column                      179.240
  ===> Total Chemistry                     180.694
  => WRF                                   768.093
  ===> Total WRF-GC                        948.788
 max optd  1.9364301E+31
 max taucldi  1.1209418E-02
 max taucldw  5.8267756E-07
 Switching is not necessary as we are already
 in the right domain!
 GIGC_Chunk_Run: Running for in-PET grid #           1
 GIGC_Chunk_Run: Received new grid IM, JM, LM =          15           9
          49
 =================================================
 W R F - G C   T I M E R S
    Domain           1 (Units: s)
 =================================================
  => Coupler Component                       1.487
   -- Physics & Parameterization             0.386
   -- Diagnostics Out                        0.000
  => GEOS-Chem Column                      180.280
  ===> Total Chemistry                     181.767
  => WRF                                   786.456
  ===> Total WRF-GC                        968.223
 max optd  1.9364301E+31
 max taucldi  1.1697268E-02
 max taucldw  5.9433046E-07
 Switching is not necessary as we are already
 in the right domain!
 GIGC_Chunk_Run: Running for in-PET grid #           1
 GIGC_Chunk_Run: Received new grid IM, JM, LM =          15           9
          49
 =================================================
 W R F - G C   T I M E R S
    Domain           1 (Units: s)
 =================================================
  => Coupler Component                       1.523
   -- Physics & Parameterization             0.395
   -- Diagnostics Out                        0.000
  => GEOS-Chem Column                      181.308
  ===> Total Chemistry                     182.832
  => WRF                                   804.650
  ===> Total WRF-GC                        987.481
 max optd  1.9364301E+31
 max taucldi  1.2096803E-02
 max taucldw  6.0472013E-07
 Switching is not necessary as we are already
 in the right domain!
 GIGC_Chunk_Run: Running for in-PET grid #           1
 GIGC_Chunk_Run: Received new grid IM, JM, LM =          15           9
          49
 =================================================
 W R F - G C   T I M E R S
    Domain           1 (Units: s)
 =================================================
  => Coupler Component                       1.559
   -- Physics & Parameterization             0.404
   -- Diagnostics Out                        0.000
  => GEOS-Chem Column                      182.338
  ===> Total Chemistry                     183.897
  => WRF                                   822.688
  ===> Total WRF-GC                       1006.585
 max optd  1.9364301E+31
 max taucldi  1.2448575E-02
 max taucldw  6.1326830E-07
 Switching is not necessary as we are already
 in the right domain!
 GIGC_Chunk_Run: Running for in-PET grid #           1
 GIGC_Chunk_Run: Received new grid IM, JM, LM =          15           9
          49
 =================================================
 W R F - G C   T I M E R S
    Domain           1 (Units: s)
 =================================================
  => Coupler Component                       1.592
   -- Physics & Parameterization             0.414
   -- Diagnostics Out                        0.000
  => GEOS-Chem Column                      183.371
  ===> Total Chemistry                     184.963
  => WRF                                   840.953
  ===> Total WRF-GC                       1025.916
 max optd  1.9364301E+31
 max taucldi  1.2763976E-02
 max taucldw  6.2005574E-07
 Switching is not necessary as we are already
 in the right domain!
 GIGC_Chunk_Run: Running for in-PET grid #           1
 GIGC_Chunk_Run: Received new grid IM, JM, LM =          15           9
          49
 =================================================
 W R F - G C   T I M E R S
    Domain           1 (Units: s)
 =================================================
  => Coupler Component                       1.625
   -- Physics & Parameterization             0.423
   -- Diagnostics Out                        0.000
  => GEOS-Chem Column                      184.406
  ===> Total Chemistry                     186.032
  => WRF                                   859.122
  ===> Total WRF-GC                       1045.154
 max optd  1.9364301E+31
 max taucldi  1.3021168E-02
 max taucldw  6.2964057E-07
 Switching is not necessary as we are already
 in the right domain!
 GIGC_Chunk_Run: Running for in-PET grid #           1
 GIGC_Chunk_Run: Received new grid IM, JM, LM =          15           9
          49
 =================================================
 W R F - G C   T I M E R S
    Domain           1 (Units: s)
 =================================================
  => Coupler Component                       1.658
   -- Physics & Parameterization             0.432
   -- Diagnostics Out                        0.000
  => GEOS-Chem Column                      185.442
  ===> Total Chemistry                     187.101
  => WRF                                   877.234
  ===> Total WRF-GC                       1064.335
 max optd  1.9364301E+31
 max taucldi  1.3199574E-02
 max taucldw  6.4036357E-07
 Switching is not necessary as we are already
 in the right domain!
 GIGC_Chunk_Run: Running for in-PET grid #           1
 GIGC_Chunk_Run: Received new grid IM, JM, LM =          15           9
          49
 =================================================
 W R F - G C   T I M E R S
    Domain           1 (Units: s)
 =================================================
  => Coupler Component                       1.690
   -- Physics & Parameterization             0.442
   -- Diagnostics Out                        0.000
  => GEOS-Chem Column                      186.495
  ===> Total Chemistry                     188.186
  => WRF                                   895.408
  ===> Total WRF-GC                       1083.593
 HOURLY EMISSIONS UPDATE TIME    14400.0       0.0
mediation_integrate: med_read_wrf_chem_emissions: Read emissions for time 2018-01-01_04:00:00
 max optd  1.9364301E+31
 max taucldi  1.3297197E-02
 max taucldw  6.5323900E-07
 Switching is not necessary as we are already
 in the right domain!
 GIGC_Chunk_Run: Running for in-PET grid #           1
 GIGC_Chunk_Run: Received new grid IM, JM, LM =          15           9
          49
 =================================================
 W R F - G C   T I M E R S
    Domain           1 (Units: s)
 =================================================
  => Coupler Component                       1.725
   -- Physics & Parameterization             0.451
   -- Diagnostics Out                        0.000
  => GEOS-Chem Column                      187.529
  ===> Total Chemistry                     189.254
  => WRF                                   913.549
  ===> Total WRF-GC                       1102.803
 max optd  1.9364301E+31
 max taucldi  1.3156747E-02
 max taucldw  6.6699295E-07
 Switching is not necessary as we are already
 in the right domain!
 GIGC_Chunk_Run: Running for in-PET grid #           1
 GIGC_Chunk_Run: Received new grid IM, JM, LM =          15           9
          49
 =================================================
 W R F - G C   T I M E R S
    Domain           1 (Units: s)
 =================================================
  => Coupler Component                       1.759
   -- Physics & Parameterization             0.460
   -- Diagnostics Out                        0.000
  => GEOS-Chem Column                      188.563
  ===> Total Chemistry                     190.322
  => WRF                                   931.710
  ===> Total WRF-GC                       1122.033
 max optd  1.9364301E+31
 max taucldi  1.2872915E-02
 max taucldw  6.7924441E-07
 Switching is not necessary as we are already
 in the right domain!
 GIGC_Chunk_Run: Running for in-PET grid #           1
 GIGC_Chunk_Run: Received new grid IM, JM, LM =          15           9
          49
 =================================================
 W R F - G C   T I M E R S
    Domain           1 (Units: s)
 =================================================
  => Coupler Component                       1.794
   -- Physics & Parameterization             0.470
   -- Diagnostics Out                        0.000
  => GEOS-Chem Column                      189.602
  ===> Total Chemistry                     191.396
  => WRF                                   949.953
  ===> Total WRF-GC                       1141.349
 max optd  1.9364301E+31
 max taucldi  1.2559940E-02
 max taucldw  6.8957542E-07
 Switching is not necessary as we are already
 in the right domain!
 GIGC_Chunk_Run: Running for in-PET grid #           1
 GIGC_Chunk_Run: Received new grid IM, JM, LM =          15           9
          49
 =================================================
 W R F - G C   T I M E R S
    Domain           1 (Units: s)
 =================================================
  => Coupler Component                       1.827
   -- Physics & Parameterization             0.479
   -- Diagnostics Out                        0.000
  => GEOS-Chem Column                      190.653
  ===> Total Chemistry                     192.481
  => WRF                                   968.086
  ===> Total WRF-GC                       1160.566
 max optd  1.9364301E+31
 max taucldi  1.2299369E-02
 max taucldw  6.9766816E-07
 Switching is not necessary as we are already
 in the right domain!
 GIGC_Chunk_Run: Running for in-PET grid #           1
 GIGC_Chunk_Run: Received new grid IM, JM, LM =          15           9
          49
 =================================================
 W R F - G C   T I M E R S
    Domain           1 (Units: s)
 =================================================
  => Coupler Component                       1.859
   -- Physics & Parameterization             0.488
   -- Diagnostics Out                        0.000
  => GEOS-Chem Column                      191.704
  ===> Total Chemistry                     193.564
  => WRF                                   986.241
  ===> Total WRF-GC                       1179.805
 max optd  1.9364301E+31
 max taucldi  1.2152288E-02
 max taucldw  7.0361153E-07
 Switching is not necessary as we are already
 in the right domain!
 GIGC_Chunk_Run: Running for in-PET grid #           1
 GIGC_Chunk_Run: Received new grid IM, JM, LM =          15           9
          49
 =================================================
 W R F - G C   T I M E R S
    Domain           1 (Units: s)
 =================================================
  => Coupler Component                       1.895
   -- Physics & Parameterization             0.497
   -- Diagnostics Out                        0.000
  => GEOS-Chem Column                      192.740
  ===> Total Chemistry                     194.635
  => WRF                                  1004.400
  ===> Total WRF-GC                       1199.035
 max optd  1.9364301E+31
 max taucldi  1.2082459E-02
 max taucldw  7.0769306E-07
 Switching is not necessary as we are already
 in the right domain!
 GIGC_Chunk_Run: Running for in-PET grid #           1
 GIGC_Chunk_Run: Received new grid IM, JM, LM =          15           9
          49
 =================================================
 W R F - G C   T I M E R S
    Domain           1 (Units: s)
 =================================================
  => Coupler Component                       1.928
   -- Physics & Parameterization             0.507
   -- Diagnostics Out                        0.000
  => GEOS-Chem Column                      193.792
  ===> Total Chemistry                     195.721
  => WRF                                  1022.609
  ===> Total WRF-GC                       1218.329
 max optd  1.9364301E+31
 max taucldi  1.2037262E-02
 max taucldw  7.1051107E-07
 Switching is not necessary as we are already
 in the right domain!
 GIGC_Chunk_Run: Running for in-PET grid #           1
 GIGC_Chunk_Run: Received new grid IM, JM, LM =          15           9
          49
 =================================================
 W R F - G C   T I M E R S
    Domain           1 (Units: s)
 =================================================
  => Coupler Component                       1.967
   -- Physics & Parameterization             0.516
   -- Diagnostics Out                        0.000
  => GEOS-Chem Column                      194.812
  ===> Total Chemistry                     196.779
  => WRF                                  1040.722
  ===> Total WRF-GC                       1237.501
 max optd  1.9364301E+31
 max taucldi  1.1939253E-02
 max taucldw  7.1695126E-07
 Switching is not necessary as we are already
 in the right domain!
 GIGC_Chunk_Run: Running for in-PET grid #           1
 GIGC_Chunk_Run: Received new grid IM, JM, LM =          15           9
          49
 =================================================
 W R F - G C   T I M E R S
    Domain           1 (Units: s)
 =================================================
  => Coupler Component                       2.000
   -- Physics & Parameterization             0.525
   -- Diagnostics Out                        0.000
  => GEOS-Chem Column                      195.855
  ===> Total Chemistry                     197.855
  => WRF                                  1058.900
  ===> Total WRF-GC                       1256.755
 max optd  1.9364301E+31
 max taucldi  1.1769459E-02
 max taucldw  7.2382585E-07
 Switching is not necessary as we are already
 in the right domain!
 GIGC_Chunk_Run: Running for in-PET grid #           1
 GIGC_Chunk_Run: Received new grid IM, JM, LM =          15           9
          49
 =================================================
 W R F - G C   T I M E R S
    Domain           1 (Units: s)
 =================================================
  => Coupler Component                       2.035
   -- Physics & Parameterization             0.534
   -- Diagnostics Out                        0.000
  => GEOS-Chem Column                      196.879
  ===> Total Chemistry                     198.915
  => WRF                                  1077.043
  ===> Total WRF-GC                       1275.957
 max optd  1.9364301E+31
 max taucldi  1.1392487E-02
 max taucldw  7.2950496E-07
 Switching is not necessary as we are already
 in the right domain!
 GIGC_Chunk_Run: Running for in-PET grid #           1
 GIGC_Chunk_Run: Received new grid IM, JM, LM =          15           9
          49
 =================================================
 W R F - G C   T I M E R S
    Domain           1 (Units: s)
 =================================================
  => Coupler Component                       2.070
   -- Physics & Parameterization             0.544
   -- Diagnostics Out                        0.000
  => GEOS-Chem Column                      197.921
  ===> Total Chemistry                     199.991
  => WRF                                  1095.166
  ===> Total WRF-GC                       1295.157
 max optd  1.9364301E+31
 max taucldi  1.1234297E-02
 max taucldw  7.3410064E-07
 Switching is not necessary as we are already
 in the right domain!
 GIGC_Chunk_Run: Running for in-PET grid #           1
 GIGC_Chunk_Run: Received new grid IM, JM, LM =          15           9
          49
 =================================================
 W R F - G C   T I M E R S
    Domain           1 (Units: s)
 =================================================
  => Coupler Component                       2.103
   -- Physics & Parameterization             0.553
   -- Diagnostics Out                        0.000
  => GEOS-Chem Column                      198.961
  ===> Total Chemistry                     201.064
  => WRF                                  1113.243
  ===> Total WRF-GC                       1314.308
 HOURLY EMISSIONS UPDATE TIME    18000.0       0.0
mediation_integrate: med_read_wrf_chem_emissions: Read emissions for time 2018-01-01_05:00:00
 max optd  1.9364301E+31
 max taucldi  1.1166828E-02
 max taucldw  7.3780205E-07
 Switching is not necessary as we are already
 in the right domain!
 GIGC_Chunk_Run: Running for in-PET grid #           1
 GIGC_Chunk_Run: Received new grid IM, JM, LM =          15           9
          49
 =================================================
 W R F - G C   T I M E R S
    Domain           1 (Units: s)
 =================================================
  => Coupler Component                       2.140
   -- Physics & Parameterization             0.562
   -- Diagnostics Out                        0.000
  => GEOS-Chem Column                      200.001
  ===> Total Chemistry                     202.141
  => WRF                                  1131.432
  ===> Total WRF-GC                       1333.573
 max optd  1.9364301E+31
 max taucldi  1.1083418E-02
 max taucldw  7.4051570E-07
 Switching is not necessary as we are already
 in the right domain!
 GIGC_Chunk_Run: Running for in-PET grid #           1
 GIGC_Chunk_Run: Received new grid IM, JM, LM =          15           9
          49
 =================================================
 W R F - G C   T I M E R S
    Domain           1 (Units: s)
 =================================================
  => Coupler Component                       2.174
   -- Physics & Parameterization             0.572
   -- Diagnostics Out                        0.000
  => GEOS-Chem Column                      201.052
  ===> Total Chemistry                     203.225
  => WRF                                  1149.540
  ===> Total WRF-GC                       1352.765
 max optd  1.9364301E+31
 max taucldi  1.1020611E-02
 max taucldw  7.4249112E-07
 Switching is not necessary as we are already
 in the right domain!
 GIGC_Chunk_Run: Running for in-PET grid #           1
 GIGC_Chunk_Run: Received new grid IM, JM, LM =          15           9
          49
 =================================================
 W R F - G C   T I M E R S
    Domain           1 (Units: s)
 =================================================
  => Coupler Component                       2.207
   -- Physics & Parameterization             0.581
   -- Diagnostics Out                        0.000
  => GEOS-Chem Column                      202.096
  ===> Total Chemistry                     204.303
  => WRF                                  1167.657
  ===> Total WRF-GC                       1371.960
 max optd  1.9364301E+31
 max taucldi  1.1055353E-02
 max taucldw  7.4390101E-07
 Switching is not necessary as we are already
 in the right domain!
 GIGC_Chunk_Run: Running for in-PET grid #           1
 GIGC_Chunk_Run: Received new grid IM, JM, LM =          15           9
          49
 =================================================
 W R F - G C   T I M E R S
    Domain           1 (Units: s)
 =================================================
  => Coupler Component                       2.248
   -- Physics & Parameterization             0.590
   -- Diagnostics Out                        0.000
  => GEOS-Chem Column                      203.118
  ===> Total Chemistry                     205.366
  => WRF                                  1185.805
  ===> Total WRF-GC                       1391.171
 max optd  1.9364301E+31
 max taucldi  1.1173081E-02
 max taucldw  7.4490748E-07
 Switching is not necessary as we are already
 in the right domain!
 GIGC_Chunk_Run: Running for in-PET grid #           1
 GIGC_Chunk_Run: Received new grid IM, JM, LM =          15           9
          49
 =================================================
 W R F - G C   T I M E R S
    Domain           1 (Units: s)
 =================================================
  => Coupler Component                       2.282
   -- Physics & Parameterization             0.600
   -- Diagnostics Out                        0.000
  => GEOS-Chem Column                      204.161
  ===> Total Chemistry                     206.443
  => WRF                                  1204.012
  ===> Total WRF-GC                       1410.455
 max optd  1.9364301E+31
 max taucldi  1.1312906E-02
 max taucldw  7.4635562E-07
 Switching is not necessary as we are already
 in the right domain!
 GIGC_Chunk_Run: Running for in-PET grid #           1
 GIGC_Chunk_Run: Received new grid IM, JM, LM =          15           9
          49
 =================================================
 W R F - G C   T I M E R S
    Domain           1 (Units: s)
 =================================================
  => Coupler Component                       2.314
   -- Physics & Parameterization             0.609
   -- Diagnostics Out                        0.000
  => GEOS-Chem Column                      205.214
  ===> Total Chemistry                     207.528
  => WRF                                  1222.106
  ===> Total WRF-GC                       1429.634
 max optd  1.9364301E+31
 max taucldi  1.1454120E-02
 max taucldw  7.5385566E-07
 Switching is not necessary as we are already
 in the right domain!
 GIGC_Chunk_Run: Running for in-PET grid #           1
 GIGC_Chunk_Run: Received new grid IM, JM, LM =          15           9
          49
 =================================================
 W R F - G C   T I M E R S
    Domain           1 (Units: s)
 =================================================
  => Coupler Component                       2.350
   -- Physics & Parameterization             0.618
   -- Diagnostics Out                        0.000
  => GEOS-Chem Column                      206.236
  ===> Total Chemistry                     208.586
  => WRF                                  1240.316
  ===> Total WRF-GC                       1448.901
 max optd  1.9364301E+31
 max taucldi  1.1614927E-02
 max taucldw  7.6512691E-07
 Switching is not necessary as we are already
 in the right domain!
 GIGC_Chunk_Run: Running for in-PET grid #           1
 GIGC_Chunk_Run: Received new grid IM, JM, LM =          15           9
          49
 =================================================
 W R F - G C   T I M E R S
    Domain           1 (Units: s)
 =================================================
  => Coupler Component                       2.388
   -- Physics & Parameterization             0.628
   -- Diagnostics Out                        0.000
  => GEOS-Chem Column                      207.266
  ===> Total Chemistry                     209.654
  => WRF                                  1258.454
  ===> Total WRF-GC                       1468.108
 max optd  1.9364301E+31
 max taucldi  1.1786568E-02
 max taucldw  7.7661525E-07
 Switching is not necessary as we are already
 in the right domain!
 GIGC_Chunk_Run: Running for in-PET grid #           1
 GIGC_Chunk_Run: Received new grid IM, JM, LM =          15           9
          49
 =================================================
 W R F - G C   T I M E R S
    Domain           1 (Units: s)
 =================================================
  => Coupler Component                       2.421
   -- Physics & Parameterization             0.637
   -- Diagnostics Out                        0.000
  => GEOS-Chem Column                      208.311
  ===> Total Chemistry                     210.732
  => WRF                                  1276.647
  ===> Total WRF-GC                       1487.379
 max optd  1.9364301E+31
 max taucldi  1.1999283E-02
 max taucldw  7.8846762E-07
 Switching is not necessary as we are already
 in the right domain!
 GIGC_Chunk_Run: Running for in-PET grid #           1
 GIGC_Chunk_Run: Received new grid IM, JM, LM =          15           9
          49
 =================================================
 W R F - G C   T I M E R S
    Domain           1 (Units: s)
 =================================================
  => Coupler Component                       2.455
   -- Physics & Parameterization             0.647
   -- Diagnostics Out                        0.000
  => GEOS-Chem Column                      209.360
  ===> Total Chemistry                     211.815
  => WRF                                  1295.064
  ===> Total WRF-GC                       1506.878
 max optd  1.9364301E+31
 max taucldi  1.2157471E-02
 max taucldw  8.0066047E-07
 Switching is not necessary as we are already
 in the right domain!
 GIGC_Chunk_Run: Running for in-PET grid #           1
 GIGC_Chunk_Run: Received new grid IM, JM, LM =          15           9
          49
 =================================================
 W R F - G C   T I M E R S
    Domain           1 (Units: s)
 =================================================
  => Coupler Component                       2.491
   -- Physics & Parameterization             0.656
   -- Diagnostics Out                        0.000
  => GEOS-Chem Column                      210.395
  ===> Total Chemistry                     212.886
  => WRF                                  1313.196
  ===> Total WRF-GC                       1526.082
 max optd  1.9364301E+31
 max taucldi  1.2234719E-02
 max taucldw  8.1295218E-07
 Switching is not necessary as we are already
 in the right domain!
 GIGC_Chunk_Run: Running for in-PET grid #           1
 GIGC_Chunk_Run: Received new grid IM, JM, LM =          15           9
          49
 =================================================
 W R F - G C   T I M E R S
    Domain           1 (Units: s)
 =================================================
  => Coupler Component                       2.530
   -- Physics & Parameterization             0.665
   -- Diagnostics Out                        0.000
  => GEOS-Chem Column                      211.412
  ===> Total Chemistry                     213.942
  => WRF                                  1331.346
  ===> Total WRF-GC                       1545.289
 HOURLY EMISSIONS UPDATE TIME    21600.0       0.0
mediation_integrate: med_read_wrf_chem_emissions: Read emissions for time 2018-01-01_06:00:00
 max optd  1.9364301E+31
 max taucldi  1.2276210E-02
 max taucldw  8.2534024E-07
 Switching is not necessary as we are already
 in the right domain!
 GIGC_Chunk_Run: Running for in-PET grid #           1
 GIGC_Chunk_Run: Received new grid IM, JM, LM =          15           9
          49
 =================================================
 W R F - G C   T I M E R S
    Domain           1 (Units: s)
 =================================================
  => Coupler Component                       2.563
   -- Physics & Parameterization             0.674
   -- Diagnostics Out                        0.000
  => GEOS-Chem Column                      212.459
  ===> Total Chemistry                     215.023
  => WRF                                  1790.053
  ===> Total WRF-GC                       2005.075
 max optd  1.9364301E+31
 max taucldi  1.2317461E-02
 max taucldw  8.3769532E-07
 Switching is not necessary as we are already
 in the right domain!
 GIGC_Chunk_Run: Running for in-PET grid #           1
 GIGC_Chunk_Run: Received new grid IM, JM, LM =          15           9
          49
 =================================================
 W R F - G C   T I M E R S
    Domain           1 (Units: s)
 =================================================
  => Coupler Component                       2.598
   -- Physics & Parameterization             0.683
   -- Diagnostics Out                        0.000
  => GEOS-Chem Column                      213.493
  ===> Total Chemistry                     216.092
  => WRF                                  1808.206
  ===> Total WRF-GC                       2024.297
 max optd  1.9364301E+31
 max taucldi  1.2373837E-02
 max taucldw  8.5015728E-07
 Switching is not necessary as we are already
 in the right domain!
 GIGC_Chunk_Run: Running for in-PET grid #           1
 GIGC_Chunk_Run: Received new grid IM, JM, LM =          15           9
          49
 =================================================
 W R F - G C   T I M E R S
    Domain           1 (Units: s)
 =================================================
  => Coupler Component                       2.632
   -- Physics & Parameterization             0.693
   -- Diagnostics Out                        0.000
  => GEOS-Chem Column                      214.525
  ===> Total Chemistry                     217.156
  => WRF                                  1826.513
  ===> Total WRF-GC                       2043.669
 max optd  1.9364301E+31
 max taucldi  1.2516373E-02
 max taucldw  8.6249378E-07
 Switching is not necessary as we are already
 in the right domain!
 GIGC_Chunk_Run: Running for in-PET grid #           1
 GIGC_Chunk_Run: Received new grid IM, JM, LM =          15           9
          49
 =================================================
 W R F - G C   T I M E R S
    Domain           1 (Units: s)
 =================================================
  => Coupler Component                       2.668
[...]
  => GEOS-Chem Column                      261.139
  ===> Total Chemistry                     265.359
  => WRF                                  2645.535
  ===> Total WRF-GC                       2910.894
 HOURLY EMISSIONS UPDATE TIME    36000.0       0.0
mediation_integrate: med_read_wrf_chem_emissions: Read emissions for time 2018-01-01_10:00:00
 max optd  1.9364301E+31
 max taucldi  1.7387427E-02
 max taucldw  1.2419787E-06
 Switching is not necessary as we are already
 in the right domain!
 GIGC_Chunk_Run: Running for in-PET grid #           1
 GIGC_Chunk_Run: Received new grid IM, JM, LM =          15           9
          49
 =================================================
 W R F - G C   T I M E R S
    Domain           1 (Units: s)
 =================================================
  => Coupler Component                       4.254
   -- Physics & Parameterization             1.126
   -- Diagnostics Out                        0.000
  => GEOS-Chem Column                      262.180
  ===> Total Chemistry                     266.434
  => WRF                                  2663.796
  ===> Total WRF-GC                       2930.229
 max optd  1.9364301E+31
 max taucldi  1.8389123E-02
 max taucldw  1.2486221E-06
 Switching is not necessary as we are already
 in the right domain!
 GIGC_Chunk_Run: Running for in-PET grid #           1
 GIGC_Chunk_Run: Received new grid IM, JM, LM =          15           9
          49
 =================================================
 W R F - G C   T I M E R S
    Domain           1 (Units: s)
 =================================================
  => Coupler Component                       4.293
   -- Physics & Parameterization             1.135
   -- Diagnostics Out                        0.000
  => GEOS-Chem Column                      263.211
  ===> Total Chemistry                     267.504
  => WRF                                  2681.963
  ===> Total WRF-GC                       2949.467
 max optd  1.9364301E+31
 max taucldi  2.0182546E-02
 max taucldw  1.2587085E-06
 Switching is not necessary as we are already
 in the right domain!
 GIGC_Chunk_Run: Running for in-PET grid #           1
 GIGC_Chunk_Run: Received new grid IM, JM, LM =          15           9
          49
 =================================================
 W R F - G C   T I M E R S
    Domain           1 (Units: s)
 =================================================
  => Coupler Component                       4.327
   -- Physics & Parameterization             1.145
   -- Diagnostics Out                        0.000
  => GEOS-Chem Column                      264.253
  ===> Total Chemistry                     268.580
  => WRF                                  2700.126
  ===> Total WRF-GC                       2968.706
 max optd  1.9364301E+31
 max taucldi  2.2885565E-02
 max taucldw  1.2682883E-06
 Switching is not necessary as we are already
 in the right domain!
 GIGC_Chunk_Run: Running for in-PET grid #           1
 GIGC_Chunk_Run: Received new grid IM, JM, LM =          15           9
          49
 =================================================
 W R F - G C   T I M E R S
    Domain           1 (Units: s)
 =================================================
  => Coupler Component                       4.361
   -- Physics & Parameterization             1.154
   -- Diagnostics Out                        0.000
  => GEOS-Chem Column                      265.281
  ===> Total Chemistry                     269.642
  => WRF                                  2718.381
  ===> Total WRF-GC                       2988.023
 max optd  1.9364301E+31
 max taucldi  2.5581196E-02
 max taucldw  1.2776424E-06
 Switching is not necessary as we are already
 in the right domain!
 GIGC_Chunk_Run: Running for in-PET grid #           1
 GIGC_Chunk_Run: Received new grid IM, JM, LM =          15           9
          49
 =================================================
 W R F - G C   T I M E R S
    Domain           1 (Units: s)
 =================================================
  => Coupler Component                       4.394
   -- Physics & Parameterization             1.164
   -- Diagnostics Out                        0.000
  => GEOS-Chem Column                      266.316
  ===> Total Chemistry                     270.710
  => WRF                                  2736.594
  ===> Total WRF-GC                       3007.304
 max optd  1.9364301E+31
 max taucldi  2.8410433E-02
 max taucldw  1.2868934E-06
 Switching is not necessary as we are already
 in the right domain!
 GIGC_Chunk_Run: Running for in-PET grid #           1
 GIGC_Chunk_Run: Received new grid IM, JM, LM =          15           9
          49
 =================================================
 W R F - G C   T I M E R S
    Domain           1 (Units: s)
 =================================================
  => Coupler Component                       4.429
   -- Physics & Parameterization             1.173
   -- Diagnostics Out                        0.000
  => GEOS-Chem Column                      267.352
  ===> Total Chemistry                     271.782
  => WRF                                  2754.718
  ===> Total WRF-GC                       3026.499
 max optd  1.9364301E+31
 max taucldi  3.0782055E-02
 max taucldw  1.2959955E-06
 Switching is not necessary as we are already
 in the right domain!
 GIGC_Chunk_Run: Running for in-PET grid #           1
 GIGC_Chunk_Run: Received new grid IM, JM, LM =          15           9
          49
 =================================================
 W R F - G C   T I M E R S
    Domain           1 (Units: s)
 =================================================
  => Coupler Component                       4.465
   -- Physics & Parameterization             1.183
   -- Diagnostics Out                        0.000
  => GEOS-Chem Column                      268.392
  ===> Total Chemistry                     272.857
  => WRF                                  2772.925
  ===> Total WRF-GC                       3045.782
 max optd  1.9364301E+31
 max taucldi  3.2989424E-02
 max taucldw  1.3045727E-06
 Switching is not necessary as we are already
 in the right domain!
 GIGC_Chunk_Run: Running for in-PET grid #           1
 GIGC_Chunk_Run: Received new grid IM, JM, LM =          15           9
          49
 =================================================
 W R F - G C   T I M E R S
    Domain           1 (Units: s)
 =================================================
  => Coupler Component                       4.498
   -- Physics & Parameterization             1.193
   -- Diagnostics Out                        0.000
  => GEOS-Chem Column                      269.437
  ===> Total Chemistry                     273.935
  => WRF                                  2791.104
  ===> Total WRF-GC                       3065.039
 max optd  1.9364301E+31
 max taucldi  3.5167854E-02
 max taucldw  1.3123607E-06
 Switching is not necessary as we are already
 in the right domain!
 GIGC_Chunk_Run: Running for in-PET grid #           1
 GIGC_Chunk_Run: Received new grid IM, JM, LM =          15           9
          49
 =================================================
 W R F - G C   T I M E R S
    Domain           1 (Units: s)
 =================================================
  => Coupler Component                       4.534
   -- Physics & Parameterization             1.202
   -- Diagnostics Out                        0.000
  => GEOS-Chem Column                      270.483
  ===> Total Chemistry                     275.017
  => WRF                                  2809.245
  ===> Total WRF-GC                       3084.261
 max optd  1.9364301E+31
 max taucldi  3.7240937E-02
 max taucldw  1.3198148E-06
 Switching is not necessary as we are already
 in the right domain!
 GIGC_Chunk_Run: Running for in-PET grid #           1
 GIGC_Chunk_Run: Received new grid IM, JM, LM =          15           9
          49
 =================================================
 W R F - G C   T I M E R S
    Domain           1 (Units: s)
 =================================================
  => Coupler Component                       4.569
   -- Physics & Parameterization             1.211
   -- Diagnostics Out                        0.000
  => GEOS-Chem Column                      271.522
  ===> Total Chemistry                     276.091
  => WRF                                  2827.481
  ===> Total WRF-GC                       3103.572
 max optd  1.9364301E+31
 max taucldi  3.9078232E-02
 max taucldw  1.3268896E-06
 Switching is not necessary as we are already
 in the right domain!
 GIGC_Chunk_Run: Running for in-PET grid #           1
 GIGC_Chunk_Run: Received new grid IM, JM, LM =          15           9
          49
 =================================================
 W R F - G C   T I M E R S
    Domain           1 (Units: s)
 =================================================
  => Coupler Component                       4.602
   -- Physics & Parameterization             1.221
   -- Diagnostics Out                        0.000
  => GEOS-Chem Column                      272.565
  ===> Total Chemistry                     277.167
  => WRF                                  2845.649
  ===> Total WRF-GC                       3122.816
 max optd  1.9364301E+31
 max taucldi  4.0596876E-02
 max taucldw  1.3336847E-06
 Switching is not necessary as we are already
 in the right domain!
 GIGC_Chunk_Run: Running for in-PET grid #           1
 GIGC_Chunk_Run: Received new grid IM, JM, LM =          15           9
          49
 =================================================
 W R F - G C   T I M E R S
    Domain           1 (Units: s)
 =================================================
  => Coupler Component                       4.637
   -- Physics & Parameterization             1.230
   -- Diagnostics Out                        0.000
  => GEOS-Chem Column                      273.615
  ===> Total Chemistry                     278.252
  => WRF                                  2863.863
  ===> Total WRF-GC                       3142.115
 HOURLY EMISSIONS UPDATE TIME    39600.0       0.0
mediation_integrate: med_read_wrf_chem_emissions: Read emissions for time 2018-01-01_11:00:00
 max optd  1.9364301E+31
 max taucldi  4.1848734E-02
 max taucldw  1.3403609E-06
 Switching is not necessary as we are already
 in the right domain!
 GIGC_Chunk_Run: Running for in-PET grid #           1
 GIGC_Chunk_Run: Received new grid IM, JM, LM =          15           9
          49
 =================================================
 W R F - G C   T I M E R S
    Domain           1 (Units: s)
 =================================================
  => Coupler Component                       4.671
   -- Physics & Parameterization             1.239
   -- Diagnostics Out                        0.000
  => GEOS-Chem Column                      274.657
  ===> Total Chemistry                     279.328
  => WRF                                  2882.059
  ===> Total WRF-GC                       3161.386
 max optd  1.9364301E+31
 max taucldi  4.2925060E-02
 max taucldw  1.3460750E-06
 Switching is not necessary as we are already
 in the right domain!
 GIGC_Chunk_Run: Running for in-PET grid #           1
 GIGC_Chunk_Run: Received new grid IM, JM, LM =          15           9
          49
 =================================================
 W R F - G C   T I M E R S
    Domain           1 (Units: s)
 =================================================
  => Coupler Component                       4.705
   -- Physics & Parameterization             1.249
   -- Diagnostics Out                        0.000
  => GEOS-Chem Column                      275.698
  ===> Total Chemistry                     280.404
  => WRF                                  2900.205
  ===> Total WRF-GC                       3180.608
 max optd  1.9364301E+31
 max taucldi  4.4088151E-02
 max taucldw  1.3513934E-06
 Switching is not necessary as we are already
 in the right domain!
 GIGC_Chunk_Run: Running for in-PET grid #           1
 GIGC_Chunk_Run: Received new grid IM, JM, LM =          15           9
          49
 =================================================
 W R F - G C   T I M E R S
    Domain           1 (Units: s)
 =================================================
  => Coupler Component                       4.741
   -- Physics & Parameterization             1.258
   -- Diagnostics Out                        0.000
  => GEOS-Chem Column                      276.740
  ===> Total Chemistry                     281.481
  => WRF                                  2918.460
  ===> Total WRF-GC                       3199.941
 max optd  1.9364301E+31
 max taucldi  4.4993926E-02
 max taucldw  1.3564058E-06
 Switching is not necessary as we are already
 in the right domain!
 GIGC_Chunk_Run: Running for in-PET grid #           1
 GIGC_Chunk_Run: Received new grid IM, JM, LM =          15           9
          49
 =================================================
 W R F - G C   T I M E R S
    Domain           1 (Units: s)
 =================================================
  => Coupler Component                       4.778
   -- Physics & Parameterization             1.267
   -- Diagnostics Out                        0.000
  => GEOS-Chem Column                      277.779
  ===> Total Chemistry                     282.557
  => WRF                                  2936.753
  ===> Total WRF-GC                       3219.310
 max optd  1.9364301E+31
 max taucldi  4.5387428E-02
 max taucldw  1.3612286E-06
 Switching is not necessary as we are already
 in the right domain!
 GIGC_Chunk_Run: Running for in-PET grid #           1
 GIGC_Chunk_Run: Received new grid IM, JM, LM =          15           9
          49
 =================================================
 W R F - G C   T I M E R S
    Domain           1 (Units: s)
 =================================================
  => Coupler Component                       4.810
   -- Physics & Parameterization             1.277
   -- Diagnostics Out                        0.000
  => GEOS-Chem Column                      278.835
  ===> Total Chemistry                     283.645
  => WRF                                  2955.189
  ===> Total WRF-GC                       3238.835
 max optd  1.9364301E+31
 max taucldi  4.5790166E-02
 max taucldw  1.3660313E-06
 Switching is not necessary as we are already
 in the right domain!
 GIGC_Chunk_Run: Running for in-PET grid #           1
 GIGC_Chunk_Run: Received new grid IM, JM, LM =          15           9
          49
 =================================================
 W R F - G C   T I M E R S
    Domain           1 (Units: s)
 =================================================
  => Coupler Component                       4.848
   -- Physics & Parameterization             1.286
   -- Diagnostics Out                        0.000
  => GEOS-Chem Column                      279.862
  ===> Total Chemistry                     284.711
  => WRF                                  2973.592
  ===> Total WRF-GC                       3258.303
 max optd  1.9364301E+31
 max taucldi  4.5386612E-02
 max taucldw  1.3706583E-06
 Switching is not necessary as we are already
 in the right domain!
 GIGC_Chunk_Run: Running for in-PET grid #           1
 GIGC_Chunk_Run: Received new grid IM, JM, LM =          15           9
          49
 =================================================
 W R F - G C   T I M E R S
    Domain           1 (Units: s)
 =================================================
  => Coupler Component                       4.888
   -- Physics & Parameterization             1.295
   -- Diagnostics Out                        0.000
  => GEOS-Chem Column                      280.891
  ===> Total Chemistry                     285.779
  => WRF                                  2992.159
  ===> Total WRF-GC                       3277.939
 max optd  1.9364301E+31
 max taucldi  4.4560656E-02
 max taucldw  1.3754183E-06
 Switching is not necessary as we are already
 in the right domain!
 GIGC_Chunk_Run: Running for in-PET grid #           1
 GIGC_Chunk_Run: Received new grid IM, JM, LM =          15           9
          49
 =================================================
 W R F - G C   T I M E R S
    Domain           1 (Units: s)
 =================================================
  => Coupler Component                       4.921
   -- Physics & Parameterization             1.305
   -- Diagnostics Out                        0.000
  => GEOS-Chem Column                      281.935
  ===> Total Chemistry                     286.856
  => WRF                                  3010.744
  ===> Total WRF-GC                       3297.599
 max optd  1.9364301E+31
 max taucldi  4.4150218E-02
 max taucldw  1.3801830E-06
 Switching is not necessary as we are already
 in the right domain!
 GIGC_Chunk_Run: Running for in-PET grid #           1
 GIGC_Chunk_Run: Received new grid IM, JM, LM =          15           9
          49
 =================================================
 W R F - G C   T I M E R S
    Domain           1 (Units: s)
 =================================================
  => Coupler Component                       4.961
   -- Physics & Parameterization             1.314
   -- Diagnostics Out                        0.000
  => GEOS-Chem Column                      282.964
  ===> Total Chemistry                     287.925
  => WRF                                  3029.451
  ===> Total WRF-GC                       3317.376
 max optd  1.9364301E+31
 max taucldi  4.3336675E-02
 max taucldw  1.3848858E-06
 Switching is not necessary as we are already
 in the right domain!
 GIGC_Chunk_Run: Running for in-PET grid #           1
 GIGC_Chunk_Run: Received new grid IM, JM, LM =          15           9
          49
 =================================================
 W R F - G C   T I M E R S
    Domain           1 (Units: s)
 =================================================
  => Coupler Component                       4.995
   -- Physics & Parameterization             1.324
   -- Diagnostics Out                        0.000
  => GEOS-Chem Column                      284.013
  ===> Total Chemistry                     289.008
  => WRF                                  3048.378
  ===> Total WRF-GC                       3337.386
 max optd  1.9364301E+31
 max taucldi  4.2633057E-02
 max taucldw  1.3894563E-06
 Switching is not necessary as we are already
 in the right domain!
 GIGC_Chunk_Run: Running for in-PET grid #           1
 GIGC_Chunk_Run: Received new grid IM, JM, LM =          15           9
          49
 =================================================
 W R F - G C   T I M E R S
    Domain           1 (Units: s)
 =================================================
  => Coupler Component                       5.027
   -- Physics & Parameterization             1.333
   -- Diagnostics Out                        0.000
  => GEOS-Chem Column                      285.063
  ===> Total Chemistry                     290.090
  => WRF                                  3067.202
  ===> Total WRF-GC                       3357.292
 max optd  1.9364301E+31
 max taucldi  4.1933399E-02
 max taucldw  1.3935819E-06
 Switching is not necessary as we are already
 in the right domain!
 GIGC_Chunk_Run: Running for in-PET grid #           1
 GIGC_Chunk_Run: Received new grid IM, JM, LM =          15           9
          49
 =================================================
 W R F - G C   T I M E R S
    Domain           1 (Units: s)
 =================================================
  => Coupler Component                       5.060
   -- Physics & Parameterization             1.343
   -- Diagnostics Out                        0.000
  => GEOS-Chem Column                      286.100
  ===> Total Chemistry                     291.161
  => WRF                                  3085.960
  ===> Total WRF-GC                       3377.121
d01 2018-01-01_12:00:00 wrf: SUCCESS COMPLETE WRF
