taskid: 3693 hostname: ip-172-31-12-113
Quilting with   1 groups of   0 I/O tasks.
 Ntasks in X           64 , ntasks in Y           72
--- WARNING: traj_opt is zero, but num_traj is not zero; setting num_traj to zero.
--- NOTE: sst_update is 0, setting io_form_auxinput4 = 0 and auxinput4_interval = 0 for all domains
--- NOTE: grid_fdda is 0 for domain      1, setting gfdda interval and ending time to 0 for that domain.
--- NOTE: both grid_sfdda and pxlsm_soil_nudge are 0 for domain      1, setting sgfdda interval and ending time to 0 for that domain.
--- NOTE: obs_nudge_opt is 0 for domain      1, setting obs nudging interval and ending time to 0 for that domain.
--- NOTE: bl_pbl_physics /= 4, implies mfshconv must be 0, resetting
Need MYNN PBL for icloud_bl = 1, resetting to 0
*************************************
No physics suite selected.
Physics options will be used directly from the namelist.
*************************************
--- NOTE: RRTMG radiation is in use, setting:  levsiz=59, alevsiz=12, no_src_types=6
--- NOTE: num_soil_layers has been set to      4
WRF V3.9.1.1 MODEL
 *************************************
 Parent domain
 ids,ide,jds,jde            1         950           1         650
 ims,ime,jms,jme          659         687         508         530
 ips,ipe,jps,jpe          666         680         515         523
 *************************************
DYNAMICS OPTION: Eulerian Mass Coordinate
   alloc_space_field: domain            1 ,              203623800  bytes allocated
  med_initialdata_input: calling input_input
Max map factor in domain 1 =  1.40. Scale the dt in the model accordingly.
INPUT LandUse = "USGS"
 LANDUSE TYPE = "USGS" FOUND          33  CATEGORIES           2  SEASONS WATER CATEGORY =           16  SNOW CATEGORY =           24
INITIALIZE THREE Noah LSM RELATED TABLES
*****************************************************************
  __          _______  ______       _____  _____ _    _ _____
  \ \        / /  __ \|  ____|     / ____|/ ____| |  | |  __ \
   \ \  /\  / /| |__) | |__ ______| |  __| |    | |__| | |__) |
    \ \/  \/ / |  _  /|  __|______| | |_ | |    |  __  |  ___/
     \  /\  /  | | \ \| |         | |__| | |____| |  | | |
      \/  \/   |_|  \_\_|          \_____|\_____|_|  |_|_|
*****************************************************************
         WRF-GC MODEL, VERSION 1811.11 - WRF BINDINGS
 For errors, suggestions & feedback email linhaipeng@pku.edu.cn
*****************************************************************
    This is domain            1
 ### GIGC_Stateful_Mod: Root CPU, after READ_INPUT_FILE
  Linoz Data:  O3 climatology :                  z*=10, 12, ..., 58                             2.700E-08 1.083E-05
  Linoz Data:  Temperature climatology :         z*=10, 12, ..., 58                             1.859E+02 2.904E+02
  Linoz Data:  Column O3 above box climalology : z*=10, 12, ..., 58                             7.538E-02 3.770E+02
  Linoz Data:  P-L O3 climatology (mr/s):        z*=10, 12, ..., 58                            -1.590E-10 2.835E-11
  Linoz Data:  d(P-L)/dO3 (1/s) :                z*=10, 12, ..., 58                            -8.386E-04 7.556E-09
  Linoz Data:  d(P-L)/dT (mr/K) :                z*=10, 12, ..., 58                            -5.742E-12 4.615E-14
  Linoz Data:  d(P-L)/d(column O3) (mr/DU) :     z*=10, 12, ..., 58                            -1.921E-12 5.038E-10
 ### GIGC_Stateful_Mod: Root CPU, after LINOZ_READ
 %%%%%%%%% GIGC IN-PET GRID SWITCHING HACKS %%%%%%%%%
     (Not very) Proudly brought to you by hplin      
 Some debug information:
 ID:           1
 IM, JM, LM:          15           9          49  will be set as PAR
 Allocs: CMN T GC F
 RC at entry-point:           0
 %%%%%%%%%%%%%%%%%%%%%%%%%%%%%%%%%%%%%%%%%%%%%%%%%%%%
 No need to switch HcoState for ID           1
 Exit RC:            0
 %%%%%%%%%    FINISHED GIGC_Switch_Dims    %%%%%%%%%
 GIGC_Chunk_Init: Received new grid IM, JM, LM =          15           9
          49
     ### GIGC_INIT_SIMULATION: after Input_Opt% setups
     ### GIGC_INIT_SIMULATION: after GC_Init_All
     ### GIGC_INIT_SIMULATION: after GC_Init_Extra
     ### GIGC_INIT_SIMULATION: after INIT_FJX
 # GIGC_CHUNK_MOD: after SV save, ID =           1
 WRFGC chemics_init: Following information regarding Input_Opt% (for all doms)
 After domain           1
 HPC:  T
 LPRT:  F
 DoConv:  T
 DoDryDep:  T
 DoEmis:  T
 DoChem:  T
 DoTurb:  T
 DoWetDep:  T

 tropopause_init: DONE intialized domain            1

 mediation_integrate: med_read_wrf_chem_emissions: Open file wrfchemi_00z_d01
 HOURLY EMISSIONS UPDATE TIME        0.0       0.0
mediation_integrate: med_read_wrf_chem_emissions: Read emissions for time 2018-01-01_00:00:00
open_aux_u : error opening wrffirechemi_d01_2018-01-01_00:00:00 for reading. 100
open_aux_u : error opening wrfchemi_gocart_bg_d01 for reading. 100
d01 2018-01-01_00:00:00 Input data processed for aux input   8 for domain   1
open_aux_u : error opening wrfchemv_d01 for reading. 100
 Tile Strategy is not specified. Assuming 1D-Y
WRF TILE   1 IS    666 IE    680 JS    515 JE    523
WRF NUMBER OF TILES =   1
 max optd  3.3547268E+12
 max taucldi  0.0000000E+00
 max taucldw  0.0000000E+00
 =================================================
 W R F - G C   T I M E R S
    Domain           1 (Units: s)
 =================================================
  => Coupler Component                       0.027
   -- Physics & Parameterization             0.001
   -- Diagnostics Out                        0.000
  => GEOS-Chem Column                        0.000
  ===> Total Chemistry                       0.027
  => WRF                                     0.000
  ===> Total WRF-GC                          0.027
 max optd  3.3547268E+12
 max taucldi  4.8857200E-04
 max taucldw  1.0000005E-14
 %%%%%%%%% GIGC IN-PET GRID SWITCHING HACKS %%%%%%%%%
     (Not very) Proudly brought to you by hplin      
 Some debug information:
 ID:           1
 IM, JM, LM:          15           9          49  will be set as PAR
 Allocs: CMN T GC T
 RC at entry-point:           0
 %%%%%%%%%%%%%%%%%%%%%%%%%%%%%%%%%%%%%%%%%%%%%%%%%%%%
 No need to switch HcoState for ID           1
 Debug HcoState nSpc, NX, NY, NZ         163          15           9          49
 Exit RC:            0
 %%%%%%%%%    FINISHED GIGC_Switch_Dims    %%%%%%%%%
 GIGC_Chunk_Run: Running for in-PET grid #           1
 GIGC_Chunk_Run: Received new grid IM, JM, LM =          15           9
          49
HEMCO: Opening /fsx/HEMCO/BIOFUEL/v2014-07/biofuel.geos.4x5.nc
HEMCO: Opening /fsx/HEMCO/BROMINE/v2015-02/Bromocarb_Liang2010.nc
HEMCO: Opening /fsx/HEMCO/ACET/v2014-07/ACET_seawater.generic.1x1.nc
HEMCO: Opening /fsx/HEMCO/SOILNOX/v2014-07/DepReservoirDefault.nc
HEMCO: Opening /fsx/HEMCO/SOILNOX/v2014-07/soilNOx.landtype.generic.025x025.1L.nc
HEMCO: Opening /fsx/HEMCO/SOILNOX/v2014-07/soilNOx.climate.generic.05x05.nc
HEMCO: Opening /fsx/HEMCO/DUST_DEAD/v2014-07/dst_tibds.geos.4x5.nc
HEMCO: Opening /fsx/HEMCO/DUST_DEAD/v2014-07/GOCART_src_fn.geos.4x5.nc
HEMCO: Opening /fsx/HEMCO/MEGAN/v2018-05/MEGAN2.1_EF.geos.025x03125.nc
HEMCO: Opening /fsx/HEMCO/MEGAN/v2017-07/CLM4_PFT.geos.025x03125.nc
HEMCO: Opening /fsx/HEMCO/TIMEZONES/v2015-02/timezones_voronoi_1x1.nc
HEMCO: Opening /fsx/HEMCO/STRAT/v2015-01/Bry/GEOSCCM_Bry.200701.day.nc
HEMCO: Opening /fsx/HEMCO/STRAT/v2015-01/Bry/GEOSCCM_Bry.200701.night.nc
HEMCO: Opening /fsx/HEMCO/OMOC/v2018-01/OMOC.DJF.01x01.nc
HEMCO: Opening /fsx/HEMCO/OMOC/v2018-01/OMOC.MAM.01x01.nc
HEMCO: Opening /fsx/HEMCO/OMOC/v2018-01/OMOC.JJA.01x01.nc
HEMCO: Opening /fsx/HEMCO/OMOC/v2018-01/OMOC.SON.01x01.nc
HEMCO: Opening /fsx/HEMCO/AnnualScalar/v2014-07/AnnualScalar.geos.1x1.nc
HEMCO: Opening /fsx/HEMCO/EDGARv42/v2015-02/NO/EDGAR_hourly_NOxScal.nc
HEMCO: Opening /fsx/HEMCO/MASKS/v2018-09/EMEP_mask.geos.1x1.20151222.nc
HEMCO: Opening /fsx/HEMCO/MASKS/v2018-09/Canada_mask.geos.1x1.nc
HEMCO: Opening /fsx/HEMCO/MASKS/v2018-09/SE_Asia_mask.generic.1x1.nc
HEMCO: Opening /fsx/HEMCO/MASKS/v2018-09/MIX_Asia_mask.generic.025x025.nc
HEMCO: Opening /fsx/HEMCO/MASKS/v2018-09/CONUS_Mask.01x01.nc
HEMCO: Opening /fsx/HEMCO/MASKS/v2018-09/AF_LANDMASK.geos.05x0666.global.nc
HEMCO: Opening /fsx/HEMCO/MASKS/v2018-09/China_mask.generic.1x1.nc
HEMCO: Opening /fsx/HEMCO/MASKS/v2018-09/India_mask.generic.1x1.nc
HEMCO: Opening /fsx/HEMCO/AnnualScalar/v2014-07/AnnualScalar.geos.1x1.nc
HEMCO: Opening /fsx/HEMCO/NH3/v2014-07/NH3_geos.4x5.nc
HEMCO: Opening /fsx/HEMCO/NH3/v2018-04/NH3_Arctic_seabirds.nc
HEMCO: Opening /fsx/HEMCO/CEDS/v2018-08/2014/NO-em-anthro_CMIP_CEDS_2014.nc
HEMCO: Opening /fsx/HEMCO/CEDS/v2018-08/2014/CO-em-anthro_CMIP_CEDS_2014.nc
HEMCO: Opening /fsx/HEMCO/CEDS/v2018-08/2014/SO2-em-anthro_CMIP_CEDS_2014.nc
HEMCO: Opening /fsx/HEMCO/CEDS/v2018-08/2014/NH3-em-anthro_CMIP_CEDS_2014.nc
HEMCO: Opening /fsx/HEMCO/CEDS/v2018-08/2014/BC-em-anthro_CMIP_CEDS_2014.nc
HEMCO: Opening /fsx/HEMCO/CEDS/v2018-08/2014/OC-em-anthro_CMIP_CEDS_2014.nc
HEMCO: Opening /fsx/HEMCO/CEDS/v2018-08/2014/EOH-em-anthro_CMIP_CEDS_2014.nc
HEMCO: Opening /fsx/HEMCO/CEDS/v2018-08/2014/C2H6-em-anthro_CMIP_CEDS_2014.nc
HEMCO: Opening /fsx/HEMCO/CEDS/v2018-08/2014/C3H8-em-anthro_CMIP_CEDS_2014.nc
HEMCO: Opening /fsx/HEMCO/CEDS/v2018-08/2014/ALK4_butanes-em-anthro_CMIP_CEDS_2014.nc
HEMCO: Opening /fsx/HEMCO/CEDS/v2018-08/2014/ALK4_pentanes-em-anthro_CMIP_CEDS_2014.nc
HEMCO: Opening /fsx/HEMCO/CEDS/v2018-08/2014/ALK4_hexanes-em-anthro_CMIP_CEDS_2014.nc
HEMCO: Opening /fsx/HEMCO/CEDS/v2018-08/2014/PRPE-em-anthro_CMIP_CEDS_2014.nc
HEMCO: Opening /fsx/HEMCO/CEDS/v2018-08/2014/BENZ-em-anthro_CMIP_CEDS_2014.nc
HEMCO: Opening /fsx/HEMCO/CEDS/v2018-08/2014/TOLU-em-anthro_CMIP_CEDS_2014.nc
HEMCO: Opening /fsx/HEMCO/CEDS/v2018-08/2014/XYLE-em-anthro_CMIP_CEDS_2014.nc
HEMCO: Opening /fsx/HEMCO/CEDS/v2018-08/2014/CH2O-em-anthro_CMIP_CEDS_2014.nc
HEMCO: Opening /fsx/HEMCO/CEDS/v2018-08/2014/ALD2-em-anthro_CMIP_CEDS_2014.nc
HEMCO: Opening /fsx/HEMCO/CEDS/v2018-08/2014/MEK-em-anthro_CMIP_CEDS_2014.nc
HEMCO: Opening /fsx/HEMCO/CEDS/v2018-08/2014/HCOOH-em-anthro_CMIP_CEDS_2014.nc
HEMCO: Opening /fsx/HEMCO/C2H6_2010/v2017-05/C2H6_global_anth_biof.201001.nc
HEMCO: Opening /fsx/HEMCO/NEI2011/v2017-02-MM/01/NEI11_0.1x0.1_201101_monmean.nc
HEMCO: Opening /fsx/HEMCO/NEI2011/v2017-02-MM/01/NEI11_0.1x0.1_201101_monmean_egu.nc
HEMCO: Opening /fsx/HEMCO/NEI2011/v2017-02-MM/01/NEI11_0.1x0.1_201101_monmean_egupk.nc
HEMCO: Opening /fsx/HEMCO/NEI2011/v2017-02-MM/01/NEI11_0.1x0.1_201101_monmean_oilgas.nc
HEMCO: Opening /fsx/HEMCO/NEI2011/v2017-02-MM/01/NEI11_0.1x0.1_201101_monmean_othpt.nc
HEMCO: Opening /fsx/HEMCO/NEI2011/v2017-02-MM/01/NEI11_0.1x0.1_201101_monmean_ptnonipm.nc
HEMCO: Opening /fsx/HEMCO/IODINE/v2017-09/CH3I_monthly_emissions_Ordonez_2012_COARDS.nc
HEMCO: Opening /fsx/HEMCO/IODINE/v2017-09/CH2I2_monthly_emissions_Ordonez_2012_COARDS.nc
HEMCO: Opening /fsx/HEMCO/IODINE/v2017-09/CH2ICl_monthly_emissions_Ordonez_2012_COARDS.nc
HEMCO: Opening /fsx/HEMCO/IODINE/v2017-09/CH2IBr_monthly_emissions_Ordonez_2012_COARDS.nc
HEMCO: Opening /fsx/HEMCO/CEDS/v2018-08/2014/CO-em-anthro_CMIP_CEDS_2014.nc
HEMCO: Opening /fsx/HEMCO/CEDS/v2018-08/2014/SO2-em-anthro_CMIP_CEDS_2014.nc
HEMCO: Opening /fsx/HEMCO/CEDS/v2018-08/2014/NH3-em-anthro_CMIP_CEDS_2014.nc
HEMCO: Opening /fsx/HEMCO/CEDS/v2018-08/2014/BC-em-anthro_CMIP_CEDS_2014.nc
HEMCO: Opening /fsx/HEMCO/CEDS/v2018-08/2014/OC-em-anthro_CMIP_CEDS_2014.nc
HEMCO: Opening /fsx/HEMCO/CEDS/v2018-08/2014/EOH-em-anthro_CMIP_CEDS_2014.nc
HEMCO: Opening /fsx/HEMCO/CEDS/v2018-08/2014/C2H6-em-anthro_CMIP_CEDS_2014.nc
HEMCO: Opening /fsx/HEMCO/CEDS/v2018-08/2014/C3H8-em-anthro_CMIP_CEDS_2014.nc
HEMCO: Opening /fsx/HEMCO/CEDS/v2018-08/2014/ALK4_butanes-em-anthro_CMIP_CEDS_2014.nc
HEMCO: Opening /fsx/HEMCO/CEDS/v2018-08/2014/ALK4_pentanes-em-anthro_CMIP_CEDS_2014.nc
HEMCO: Opening /fsx/HEMCO/CEDS/v2018-08/2014/ALK4_hexanes-em-anthro_CMIP_CEDS_2014.nc
HEMCO: Opening /fsx/HEMCO/CEDS/v2018-08/2014/PRPE-em-anthro_CMIP_CEDS_2014.nc
HEMCO: Opening /fsx/HEMCO/CEDS/v2018-08/2014/BENZ-em-anthro_CMIP_CEDS_2014.nc
HEMCO: Opening /fsx/HEMCO/CEDS/v2018-08/2014/TOLU-em-anthro_CMIP_CEDS_2014.nc
HEMCO: Opening /fsx/HEMCO/CEDS/v2018-08/2014/XYLE-em-anthro_CMIP_CEDS_2014.nc
HEMCO: Opening /fsx/HEMCO/CEDS/v2018-08/2014/CH2O-em-anthro_CMIP_CEDS_2014.nc
HEMCO: Opening /fsx/HEMCO/CEDS/v2018-08/2014/ALD2-em-anthro_CMIP_CEDS_2014.nc
HEMCO: Opening /fsx/HEMCO/CEDS/v2018-08/2014/MEK-em-anthro_CMIP_CEDS_2014.nc
HEMCO: Opening /fsx/HEMCO/CEDS/v2018-08/2014/HCOOH-em-anthro_CMIP_CEDS_2014.nc
HEMCO: Opening /fsx/HEMCO/CEDS/v2018-08/2014/NO-em-anthro_CMIP_CEDS_2014.nc
HEMCO: Opening /fsx/HEMCO/AEIC/v2015-01/AEIC.47L.gen.1x1.nc
HEMCO: Opening /fsx/HEMCO/ALD2/v2017-03/resp.geos.2x25.nc
HEMCO: Opening /fsx/HEMCO/DMS/v2015-07/DMS_lana.geos.1x1.nc
HEMCO: Opening /fsx/HEMCO/ALD2/v2017-03/ALD2_seawater.geos.2x25.nc
HEMCO: Opening /fsx/HEMCO/DUST_DEAD/v2014-07/dst_tvbds.geos.4x5.nc
HEMCO: Opening /fsx/HEMCO/DUST_DEAD/v2018-04/PM25FINE_ECLIPSE_2015.geos.2x25.nc
HEMCO: Opening /fsx/HEMCO/SOA/v2014-07/NVOC.geos.1x1.nc
HEMCO: Opening /fsx/HEMCO/GFED4/v2015-10/2016/GFED4_gen.025x025.201601.nc
HEMCO: Opening /fsx/HEMCO/UVALBEDO/v2015-03/uvalbedo.geos.2x25.nc
HEMCO: Opening /fsx/HEMCO/GMI/v2015-02/gmi.clim.ACET.geos5.2x25.nc
HEMCO: Opening /fsx/HEMCO/GMI/v2015-02/gmi.clim.ACTA.geos5.2x25.nc
HEMCO: Opening /fsx/HEMCO/GMI/v2015-02/gmi.clim.ALD2.geos5.2x25.nc
HEMCO: Opening /fsx/HEMCO/GMI/v2015-02/gmi.clim.ALK4.geos5.2x25.nc
HEMCO: Opening /fsx/HEMCO/GMI/v2015-02/gmi.clim.C2H6.geos5.2x25.nc
HEMCO: Opening /fsx/HEMCO/GMI/v2015-02/gmi.clim.C3H8.geos5.2x25.nc
HEMCO: Opening /fsx/HEMCO/GMI/v2015-02/gmi.clim.CCl4.geos5.2x25.nc
HEMCO: Opening /fsx/HEMCO/GMI/v2015-02/gmi.clim.CF2Cl2.geos5.2x25.nc
HEMCO: Opening /fsx/HEMCO/GMI/v2015-02/gmi.clim.CF2ClBr.geos5.2x25.nc
HEMCO: Opening /fsx/HEMCO/GMI/v2015-02/gmi.clim.CFC113.geos5.2x25.nc
HEMCO: Opening /fsx/HEMCO/GMI/v2015-02/gmi.clim.CFC114.geos5.2x25.nc
HEMCO: Opening /fsx/HEMCO/GMI/v2015-02/gmi.clim.CFC115.geos5.2x25.nc
HEMCO: Opening /fsx/HEMCO/GMI/v2015-02/gmi.clim.CFCl3.geos5.2x25.nc
HEMCO: Opening /fsx/HEMCO/GMI/v2015-02/gmi.clim.CH2O.geos5.2x25.nc
HEMCO: Opening /fsx/HEMCO/GMI/v2015-02/gmi.clim.CH3CCl3.geos5.2x25.nc
HEMCO: Opening /fsx/HEMCO/GMI/v2015-02/gmi.clim.CH3Cl.geos5.2x25.nc
HEMCO: Opening /fsx/HEMCO/GMI/v2015-02/gmi.clim.CH4.geos5.2x25.nc
HEMCO: Opening /fsx/HEMCO/GMI/v2015-02/gmi.clim.CO.geos5.2x25.nc
HEMCO: Opening /fsx/HEMCO/GMI/v2015-02/gmi.clim.Cl.geos5.2x25.nc
HEMCO: Opening /fsx/HEMCO/GMI/v2015-02/gmi.clim.Cl2.geos5.2x25.nc
HEMCO: Opening /fsx/HEMCO/GMI/v2015-02/gmi.clim.Cl2O2.geos5.2x25.nc
HEMCO: Opening /fsx/HEMCO/GMI/v2015-02/gmi.clim.ClO.geos5.2x25.nc
HEMCO: Opening /fsx/HEMCO/GMI/v2015-02/gmi.clim.EOH.geos5.2x25.nc
HEMCO: Opening /fsx/HEMCO/GMI/v2015-02/gmi.clim.GLYC.geos5.2x25.nc
HEMCO: Opening /fsx/HEMCO/GMI/v2015-02/gmi.clim.GLYX.geos5.2x25.nc
HEMCO: Opening /fsx/HEMCO/GMI/v2015-02/gmi.clim.H2402.geos5.2x25.nc
HEMCO: Opening /fsx/HEMCO/GMI/v2015-02/gmi.clim.H2O.geos5.2x25.nc
HEMCO: Opening /fsx/HEMCO/GMI/v2015-02/gmi.clim.H2O2.geos5.2x25.nc
HEMCO: Opening /fsx/HEMCO/GMI/v2015-02/gmi.clim.HAC.geos5.2x25.nc
HEMCO: Opening /fsx/HEMCO/GMI/v2015-02/gmi.clim.HCFC141b.geos5.2x25.nc
HEMCO: Opening /fsx/HEMCO/GMI/v2015-02/gmi.clim.HCFC142b.geos5.2x25.nc
HEMCO: Opening /fsx/HEMCO/GMI/v2015-02/gmi.clim.HCFC22.geos5.2x25.nc
HEMCO: Opening /fsx/HEMCO/GMI/v2015-02/gmi.clim.HCOOH.geos5.2x25.20170108.nc
HEMCO: Opening /fsx/HEMCO/GMI/v2015-02/gmi.clim.HCl.geos5.2x25.nc
HEMCO: Opening /fsx/HEMCO/GMI/v2015-02/gmi.clim.HNO2.geos5.2x25.nc
HEMCO: Opening /fsx/HEMCO/GMI/v2015-02/gmi.clim.HNO3.geos5.2x25.nc
HEMCO: Opening /fsx/HEMCO/GMI/v2015-02/gmi.clim.HNO4.geos5.2x25.nc
HEMCO: Opening /fsx/HEMCO/GMI/v2015-02/gmi.clim.HOCl.geos5.2x25.nc
HEMCO: Opening /fsx/HEMCO/GMI/v2015-02/gmi.clim.ISN1.geos5.2x25.nc
HEMCO: Opening /fsx/HEMCO/GMI/v2015-02/gmi.clim.ISOP.geos5.2x25.nc
HEMCO: Opening /fsx/HEMCO/GMI/v2015-02/gmi.clim.MACR.geos5.2x25.nc
HEMCO: Opening /fsx/HEMCO/GMI/v2015-02/gmi.clim.MAP.geos5.2x25.nc
HEMCO: Opening /fsx/HEMCO/GMI/v2015-02/gmi.clim.MEK.geos5.2x25.nc
HEMCO: Opening /fsx/HEMCO/GMI/v2015-02/gmi.clim.MGLY.geos5.2x25.nc
HEMCO: Opening /fsx/HEMCO/GMI/v2015-02/gmi.clim.MP.geos5.2x25.nc
HEMCO: Opening /fsx/HEMCO/GMI/v2015-02/gmi.clim.MVK.geos5.2x25.nc
HEMCO: Opening /fsx/HEMCO/GMI/v2015-02/gmi.clim.N2O.geos5.2x25.nc
HEMCO: Opening /fsx/HEMCO/GMI/v2015-02/gmi.clim.N2O5.geos5.2x25.nc
HEMCO: Opening /fsx/HEMCO/GMI/v2015-02/gmi.clim.NO.geos5.2x25.nc
HEMCO: Opening /fsx/HEMCO/GMI/v2015-02/gmi.clim.NO2.geos5.2x25.nc
HEMCO: Opening /fsx/HEMCO/GMI/v2015-02/gmi.clim.NO3.geos5.2x25.nc
HEMCO: Opening /fsx/HEMCO/GMI/v2015-02/gmi.clim.O3.geos5.2x25.nc
HEMCO: Opening /fsx/HEMCO/GMI/v2015-02/gmi.clim.OClO.geos5.2x25.nc
HEMCO: Opening /fsx/HEMCO/GMI/v2015-02/gmi.clim.PAN.geos5.2x25.nc
HEMCO: Opening /fsx/HEMCO/GMI/v2015-02/gmi.clim.NPMN.geos5.2x25.nc
HEMCO: Opening /fsx/HEMCO/GMI/v2015-02/gmi.clim.IPMN.geos5.2x25.nc
HEMCO: Opening /fsx/HEMCO/GMI/v2015-02/gmi.clim.PPN.geos5.2x25.nc
HEMCO: Opening /fsx/HEMCO/GMI/v2015-02/gmi.clim.PRPE.geos5.2x25.nc
HEMCO: Opening /fsx/HEMCO/GMI/v2015-02/gmi.clim.R4N2.geos5.2x25.nc
HEMCO: Opening /fsx/HEMCO/GMI/v2015-02/gmi.clim.RCHO.geos5.2x25.nc
HEMCO: Opening /fsx/HEMCO/GMI/v2015-02/gmi.clim.RIPA.geos5.2x25.nc
HEMCO: Opening /fsx/HEMCO/GMI/v2015-02/gmi.clim.RIPB.geos5.2x25.nc
HEMCO: Opening /fsx/HEMCO/GMI/v2015-02/gmi.clim.RIPD.geos5.2x25.nc
HEMCO: Opening /fsx/HEMCO/GMI/v2015-02/gmi.clim.OH.geos5.2x25.nc
HEMCO: Opening /fsx/HEMCO/NOAA_GMD/v2018-01/monthly.gridded.surface.methane.1979-2020.1x1.nc
HEMCO: Opening /fsx/HEMCO/GEIA/v2014-07/GEIA_monthscal.generic.1x1.nc
HEMCO: Opening /fsx/HEMCO/EMEP/v2015-03/EMEP.Seasonal.geos.1x1.nc
HEMCO: Opening /fsx/HEMCO/BROMINE/v2015-02/BromoCarb_Season.nc
HEMCO: Opening /fsx/HEMCO/EDGARv43/v2016-11/EDGAR_v43.Seasonal.1x1.nc
HEMCO: Opening /fsx/HEMCO/NEI2005/v2014-09/scaling/NEI99.dow.geos.1x1.nc
HEMCO: Opening /fsx/HEMCO/VOLCANO/v2015-02/2009/volc_so2_gen.1x1.47L.200901.nc
HEMCO: Opening /fsx/HEMCO/SOILNOX/v2014-07/soilNOx.fert_res.generic.05x05.nc
 vdinti: pbl height will be limited to bottom           25  model levels. top is
     431.250100000000       hpa
 =================================================
 W R F - G C   T I M E R S
    Domain           1 (Units: s)
 =================================================
  => Coupler Component                       0.049
   -- Physics & Parameterization             0.009
   -- Diagnostics Out                        0.000
  => GEOS-Chem Column                      154.403
  ===> Total Chemistry                     154.452
  => WRF                                    17.470
  ===> Total WRF-GC                        171.922
 max optd  7.8596619E+36
 max taucldi  2.8184492E-03
 max taucldw  4.3967145E-08
 Switching is not necessary as we are already
 in the right domain!
 GIGC_Chunk_Run: Running for in-PET grid #           1
 GIGC_Chunk_Run: Received new grid IM, JM, LM =          15           9
          49
 =================================================
 W R F - G C   T I M E R S
    Domain           1 (Units: s)
 =================================================
  => Coupler Component                       0.081
   -- Physics & Parameterization             0.018
   -- Diagnostics Out                        0.000
  => GEOS-Chem Column                      155.522
  ===> Total Chemistry                     155.603
  => WRF                                    36.664
  ===> Total WRF-GC                        192.267
 max optd  7.8596619E+36
 max taucldi  5.7637934E-03
 max taucldw  7.2836272E-08
 Switching is not necessary as we are already
 in the right domain!
 GIGC_Chunk_Run: Running for in-PET grid #           1
 GIGC_Chunk_Run: Received new grid IM, JM, LM =          15           9
          49
 =================================================
 W R F - G C   T I M E R S
    Domain           1 (Units: s)
 =================================================
  => Coupler Component                       0.114
   -- Physics & Parameterization             0.027
   -- Diagnostics Out                        0.000
  => GEOS-Chem Column                      156.601
  ===> Total Chemistry                     156.714
  => WRF                                    57.392
  ===> Total WRF-GC                        214.106
 max optd  7.8596619E+36
 max taucldi  8.7349489E-03
 max taucldw  8.8907015E-08
 Switching is not necessary as we are already
 in the right domain!
 GIGC_Chunk_Run: Running for in-PET grid #           1
 GIGC_Chunk_Run: Received new grid IM, JM, LM =          15           9
          49
 =================================================
 W R F - G C   T I M E R S
    Domain           1 (Units: s)
 =================================================
  => Coupler Component                       0.145
   -- Physics & Parameterization             0.035
   -- Diagnostics Out                        0.000
  => GEOS-Chem Column                      157.661
  ===> Total Chemistry                     157.806
  => WRF                                    76.417
  ===> Total WRF-GC                        234.222
 max optd  7.8596619E+36
 max taucldi  1.1423090E-02
 max taucldw  0.6378227    
 Switching is not necessary as we are already
 in the right domain!
 GIGC_Chunk_Run: Running for in-PET grid #           1
 GIGC_Chunk_Run: Received new grid IM, JM, LM =          15           9
          49
 =================================================
 W R F - G C   T I M E R S
    Domain           1 (Units: s)
 =================================================
  => Coupler Component                       0.177
   -- Physics & Parameterization             0.044
   -- Diagnostics Out                        0.000
  => GEOS-Chem Column                      158.710
  ===> Total Chemistry                     158.887
  => WRF                                    94.988
  ===> Total WRF-GC                        253.875
 max optd  7.8596619E+36
 max taucldi  1.3692577E-02
 max taucldw   1.248081    
 Switching is not necessary as we are already
 in the right domain!
 GIGC_Chunk_Run: Running for in-PET grid #           1
 GIGC_Chunk_Run: Received new grid IM, JM, LM =          15           9
          49
 =================================================
 W R F - G C   T I M E R S
    Domain           1 (Units: s)
 =================================================
  => Coupler Component                       0.211
   -- Physics & Parameterization             0.053
   -- Diagnostics Out                        0.000
  => GEOS-Chem Column                      159.763
  ===> Total Chemistry                     159.973
  => WRF                                   113.451
  ===> Total WRF-GC                        273.424
 max optd  7.8596619E+36
 max taucldi  1.7134652E-02
 max taucldw   1.776975    
 Switching is not necessary as we are already
 in the right domain!
 GIGC_Chunk_Run: Running for in-PET grid #           1
 GIGC_Chunk_Run: Received new grid IM, JM, LM =          15           9
          49
 =================================================
 W R F - G C   T I M E R S
    Domain           1 (Units: s)
 =================================================
  => Coupler Component                       0.244
   -- Physics & Parameterization             0.061
   -- Diagnostics Out                        0.000
  => GEOS-Chem Column                      160.809
  ===> Total Chemistry                     161.053
  => WRF                                   131.903
  ===> Total WRF-GC                        292.956
 max optd  7.8596619E+36
 max taucldi  2.3508068E-02
 max taucldw   2.293122    
 Switching is not necessary as we are already
 in the right domain!
 GIGC_Chunk_Run: Running for in-PET grid #           1
 GIGC_Chunk_Run: Received new grid IM, JM, LM =          15           9
          49
 =================================================
 W R F - G C   T I M E R S
    Domain           1 (Units: s)
 =================================================
  => Coupler Component                       0.275
   -- Physics & Parameterization             0.070
   -- Diagnostics Out                        0.000
  => GEOS-Chem Column                      161.856
  ===> Total Chemistry                     162.131
  => WRF                                   150.286
  ===> Total WRF-GC                        312.416
 max optd  7.8596619E+36
 max taucldi  3.4032200E-02
 max taucldw   2.961019    
 Switching is not necessary as we are already
 in the right domain!
 GIGC_Chunk_Run: Running for in-PET grid #           1
 GIGC_Chunk_Run: Received new grid IM, JM, LM =          15           9
          49
 =================================================
 W R F - G C   T I M E R S
    Domain           1 (Units: s)
 =================================================
  => Coupler Component                       0.307
   -- Physics & Parameterization             0.078
   -- Diagnostics Out                        0.000
  => GEOS-Chem Column                      162.901
  ===> Total Chemistry                     163.208
  => WRF                                   168.680
  ===> Total WRF-GC                        331.889
 max optd  7.8596619E+36
 max taucldi  4.5450326E-02
 max taucldw   2.965116    
 Switching is not necessary as we are already
 in the right domain!
 GIGC_Chunk_Run: Running for in-PET grid #           1
 GIGC_Chunk_Run: Received new grid IM, JM, LM =          15           9
          49
 =================================================
 W R F - G C   T I M E R S
    Domain           1 (Units: s)
 =================================================
  => Coupler Component                       0.341
   -- Physics & Parameterization             0.087
   -- Diagnostics Out                        0.000
  => GEOS-Chem Column                      163.951
  ===> Total Chemistry                     164.292
  => WRF                                   187.125
  ===> Total WRF-GC                        351.417
 max optd  7.8596619E+36
 max taucldi  6.3523024E-02
 max taucldw   3.294007    
 Switching is not necessary as we are already
 in the right domain!
 GIGC_Chunk_Run: Running for in-PET grid #           1
 GIGC_Chunk_Run: Received new grid IM, JM, LM =          15           9
          49
 =================================================
 W R F - G C   T I M E R S
    Domain           1 (Units: s)
 =================================================
  => Coupler Component                       0.372
   -- Physics & Parameterization             0.096
   -- Diagnostics Out                        0.000
  => GEOS-Chem Column                      164.991
  ===> Total Chemistry                     165.364
  => WRF                                   205.495
  ===> Total WRF-GC                        370.859
 max optd  7.8596619E+36
 max taucldi  7.6066613E-02
 max taucldw   3.247225    
 Switching is not necessary as we are already
 in the right domain!
 GIGC_Chunk_Run: Running for in-PET grid #           1
 GIGC_Chunk_Run: Received new grid IM, JM, LM =          15           9
          49
 =================================================
 W R F - G C   T I M E R S
    Domain           1 (Units: s)
 =================================================
  => Coupler Component                       0.404
   -- Physics & Parameterization             0.104
   -- Diagnostics Out                        0.000
  => GEOS-Chem Column                      166.039
  ===> Total Chemistry                     166.443
  => WRF                                   223.752
  ===> Total WRF-GC                        390.195
 HOURLY EMISSIONS UPDATE TIME     3600.0       0.0
mediation_integrate: med_read_wrf_chem_emissions: Read emissions for time 2018-01-01_01:00:00
 max optd  7.8596619E+36
 max taucldi  8.7333791E-02
 max taucldw   2.879932    
 Switching is not necessary as we are already
 in the right domain!
 GIGC_Chunk_Run: Running for in-PET grid #           1
 GIGC_Chunk_Run: Received new grid IM, JM, LM =          15           9
          49
 =================================================
 W R F - G C   T I M E R S
    Domain           1 (Units: s)
 =================================================
  => Coupler Component                       0.436
   -- Physics & Parameterization             0.113
   -- Diagnostics Out                        0.000
  => GEOS-Chem Column                      167.078
  ===> Total Chemistry                     167.514
  => WRF                                   242.081
  ===> Total WRF-GC                        409.594
 max optd  7.8596619E+36
 max taucldi  9.4768241E-02
 max taucldw   2.687706    
 Switching is not necessary as we are already
 in the right domain!
 GIGC_Chunk_Run: Running for in-PET grid #           1
 GIGC_Chunk_Run: Received new grid IM, JM, LM =          15           9
          49
 =================================================
 W R F - G C   T I M E R S
    Domain           1 (Units: s)
 =================================================
  => Coupler Component                       0.469
   -- Physics & Parameterization             0.122
   -- Diagnostics Out                        0.000
  => GEOS-Chem Column                      168.125
  ===> Total Chemistry                     168.594
  => WRF                                   260.413
  ===> Total WRF-GC                        429.008
 max optd  7.8596619E+36
 max taucldi  9.6049614E-02
 max taucldw   2.601036    
 Switching is not necessary as we are already
 in the right domain!
 GIGC_Chunk_Run: Running for in-PET grid #           1
 GIGC_Chunk_Run: Received new grid IM, JM, LM =          15           9
          49
 =================================================
 W R F - G C   T I M E R S
    Domain           1 (Units: s)
 =================================================
  => Coupler Component                       0.504
   -- Physics & Parameterization             0.131
   -- Diagnostics Out                        0.000
  => GEOS-Chem Column                      169.165
  ===> Total Chemistry                     169.669
  => WRF                                   278.619
  ===> Total WRF-GC                        448.288
 max optd  7.8596619E+36
 max taucldi  9.6148200E-02
 max taucldw   2.765474    
 Switching is not necessary as we are already
 in the right domain!
 GIGC_Chunk_Run: Running for in-PET grid #           1
 GIGC_Chunk_Run: Received new grid IM, JM, LM =          15           9
          49
 =================================================
 W R F - G C   T I M E R S
    Domain           1 (Units: s)
 =================================================
  => Coupler Component                       0.536
   -- Physics & Parameterization             0.140
   -- Diagnostics Out                        0.000
  => GEOS-Chem Column                      170.201
  ===> Total Chemistry                     170.737
  => WRF                                   296.906
  ===> Total WRF-GC                        467.642
 max optd  7.8596619E+36
 max taucldi  9.7086444E-02
 max taucldw   2.875335    
 Switching is not necessary as we are already
 in the right domain!
 GIGC_Chunk_Run: Running for in-PET grid #           1
 GIGC_Chunk_Run: Received new grid IM, JM, LM =          15           9
          49
 =================================================
 W R F - G C   T I M E R S
    Domain           1 (Units: s)
 =================================================
  => Coupler Component                       0.571
   -- Physics & Parameterization             0.149
   -- Diagnostics Out                        0.000
  => GEOS-Chem Column                      171.227
  ===> Total Chemistry                     171.797
  => WRF                                   315.167
  ===> Total WRF-GC                        486.964
 max optd  7.8596619E+36
 max taucldi  9.4843350E-02
 max taucldw   3.078438    
 Switching is not necessary as we are already
 in the right domain!
 GIGC_Chunk_Run: Running for in-PET grid #           1
 GIGC_Chunk_Run: Received new grid IM, JM, LM =          15           9
          49
 =================================================
 W R F - G C   T I M E R S
    Domain           1 (Units: s)
 =================================================
  => Coupler Component                       0.606
   -- Physics & Parameterization             0.157
   -- Diagnostics Out                        0.000
  => GEOS-Chem Column                      172.250
  ===> Total Chemistry                     172.855
  => WRF                                   333.396
  ===> Total WRF-GC                        506.251
 max optd  7.8596619E+36
 max taucldi  8.7487474E-02
 max taucldw   3.181981    
 Switching is not necessary as we are already
 in the right domain!
 GIGC_Chunk_Run: Running for in-PET grid #           1
 GIGC_Chunk_Run: Received new grid IM, JM, LM =          15           9
          49
 =================================================
 W R F - G C   T I M E R S
    Domain           1 (Units: s)
 =================================================
  => Coupler Component                       0.640
   -- Physics & Parameterization             0.166
   -- Diagnostics Out                        0.000
  => GEOS-Chem Column                      173.282
  ===> Total Chemistry                     173.921
  => WRF                                   351.677
  ===> Total WRF-GC                        525.599
 max optd  7.8596619E+36
 max taucldi  7.8346446E-02
 max taucldw   3.024613    
 Switching is not necessary as we are already
 in the right domain!
 GIGC_Chunk_Run: Running for in-PET grid #           1
 GIGC_Chunk_Run: Received new grid IM, JM, LM =          15           9
          49
 =================================================
 W R F - G C   T I M E R S
    Domain           1 (Units: s)
 =================================================
  => Coupler Component                       0.673
   -- Physics & Parameterization             0.175
   -- Diagnostics Out                        0.000
  => GEOS-Chem Column                      174.308
  ===> Total Chemistry                     174.981
  => WRF                                   370.059
  ===> Total WRF-GC                        545.040
 max optd  7.8596619E+36
 max taucldi  7.3172502E-02
 max taucldw   2.866397    
 Switching is not necessary as we are already
 in the right domain!
 GIGC_Chunk_Run: Running for in-PET grid #           1
 GIGC_Chunk_Run: Received new grid IM, JM, LM =          15           9
          49
 =================================================
 W R F - G C   T I M E R S
    Domain           1 (Units: s)
 =================================================
  => Coupler Component                       0.704
   -- Physics & Parameterization             0.184
   -- Diagnostics Out                        0.000
  => GEOS-Chem Column                      175.355
  ===> Total Chemistry                     176.059
  => WRF                                   388.190
  ===> Total WRF-GC                        564.249
 max optd  7.8596619E+36
 max taucldi  6.7011170E-02
 max taucldw   2.716318    
 Switching is not necessary as we are already
 in the right domain!
 GIGC_Chunk_Run: Running for in-PET grid #           1
 GIGC_Chunk_Run: Received new grid IM, JM, LM =          15           9
          49
 =================================================
 W R F - G C   T I M E R S
    Domain           1 (Units: s)
 =================================================
  => Coupler Component                       0.738
   -- Physics & Parameterization             0.193
   -- Diagnostics Out                        0.000
  => GEOS-Chem Column                      176.395
  ===> Total Chemistry                     177.133
  => WRF                                   406.382
  ===> Total WRF-GC                        583.515
 max optd  7.8596619E+36
 max taucldi  5.8394510E-02
 max taucldw   2.655858    
 Switching is not necessary as we are already
 in the right domain!
 GIGC_Chunk_Run: Running for in-PET grid #           1
 GIGC_Chunk_Run: Received new grid IM, JM, LM =          15           9
          49
 =================================================
 W R F - G C   T I M E R S
    Domain           1 (Units: s)
 =================================================
  => Coupler Component                       0.769
   -- Physics & Parameterization             0.202
   -- Diagnostics Out                        0.000
  => GEOS-Chem Column                      177.426
  ===> Total Chemistry                     178.195
  => WRF                                   424.691
  ===> Total WRF-GC                        602.886
 max optd  7.8596619E+36
 max taucldi  6.3563794E-02
 max taucldw   2.530895    
 Switching is not necessary as we are already
 in the right domain!
 GIGC_Chunk_Run: Running for in-PET grid #           1
 GIGC_Chunk_Run: Received new grid IM, JM, LM =          15           9
          49
 =================================================
 W R F - G C   T I M E R S
    Domain           1 (Units: s)
 =================================================
  => Coupler Component                       0.801
   -- Physics & Parameterization             0.211
   -- Diagnostics Out                        0.000
  => GEOS-Chem Column                      178.460
  ===> Total Chemistry                     179.261
  => WRF                                   442.899
  ===> Total WRF-GC                        622.160
 HOURLY EMISSIONS UPDATE TIME     7200.0       0.0
mediation_integrate: med_read_wrf_chem_emissions: Read emissions for time 2018-01-01_02:00:00
 max optd  7.8596619E+36
 max taucldi  6.8036221E-02
 max taucldw   2.657628    
 Switching is not necessary as we are already
 in the right domain!
 GIGC_Chunk_Run: Running for in-PET grid #           1
 GIGC_Chunk_Run: Received new grid IM, JM, LM =          15           9
          49
 =================================================
 W R F - G C   T I M E R S
    Domain           1 (Units: s)
 =================================================
  => Coupler Component                       0.837
   -- Physics & Parameterization             0.220
   -- Diagnostics Out                        0.000
  => GEOS-Chem Column                      179.475
  ===> Total Chemistry                     180.313
  => WRF                                   461.131
  ===> Total WRF-GC                        641.444
 max optd  7.8596619E+36
 max taucldi  7.3293902E-02
 max taucldw   2.584079    
 Switching is not necessary as we are already
 in the right domain!
 GIGC_Chunk_Run: Running for in-PET grid #           1
 GIGC_Chunk_Run: Received new grid IM, JM, LM =          15           9
          49
 =================================================
 W R F - G C   T I M E R S
    Domain           1 (Units: s)
 =================================================
  => Coupler Component                       0.872
   -- Physics & Parameterization             0.229
   -- Diagnostics Out                        0.000
  => GEOS-Chem Column                      180.505
  ===> Total Chemistry                     181.377
  => WRF                                   479.390
  ===> Total WRF-GC                        660.767
 max optd  7.8596619E+36
 max taucldi  7.9936296E-02
 max taucldw   2.443704    
 Switching is not necessary as we are already
 in the right domain!
 GIGC_Chunk_Run: Running for in-PET grid #           1
 GIGC_Chunk_Run: Received new grid IM, JM, LM =          15           9
          49
 =================================================
 W R F - G C   T I M E R S
    Domain           1 (Units: s)
 =================================================
  => Coupler Component                       0.904
   -- Physics & Parameterization             0.237
   -- Diagnostics Out                        0.000
  => GEOS-Chem Column                      181.562
  ===> Total Chemistry                     182.466
  => WRF                                   497.543
  ===> Total WRF-GC                        680.009
 max optd  7.8596619E+36
 max taucldi  8.6075112E-02
 max taucldw   2.447552    
 Switching is not necessary as we are already
 in the right domain!
 GIGC_Chunk_Run: Running for in-PET grid #           1
 GIGC_Chunk_Run: Received new grid IM, JM, LM =          15           9
          49
 =================================================
 W R F - G C   T I M E R S
    Domain           1 (Units: s)
 =================================================
  => Coupler Component                       0.941
   -- Physics & Parameterization             0.246
   -- Diagnostics Out                        0.000
  => GEOS-Chem Column                      182.588
  ===> Total Chemistry                     183.528
  => WRF                                   515.652
  ===> Total WRF-GC                        699.180
 max optd  7.8596619E+36
 max taucldi  8.8388093E-02
 max taucldw   2.232231    
 Switching is not necessary as we are already
 in the right domain!
 GIGC_Chunk_Run: Running for in-PET grid #           1
 GIGC_Chunk_Run: Received new grid IM, JM, LM =          15           9
          49
 =================================================
 W R F - G C   T I M E R S
    Domain           1 (Units: s)
 =================================================
  => Coupler Component                       0.973
   -- Physics & Parameterization             0.254
   -- Diagnostics Out                        0.000
  => GEOS-Chem Column                      183.612
  ===> Total Chemistry                     184.586
  => WRF                                   533.826
  ===> Total WRF-GC                        718.411
 max optd  7.8596619E+36
 max taucldi  8.7069534E-02
 max taucldw   1.940966    
 Switching is not necessary as we are already
 in the right domain!
 GIGC_Chunk_Run: Running for in-PET grid #           1
 GIGC_Chunk_Run: Received new grid IM, JM, LM =          15           9
          49
 =================================================
 W R F - G C   T I M E R S
    Domain           1 (Units: s)
 =================================================
  => Coupler Component                       1.010
   -- Physics & Parameterization             0.263
   -- Diagnostics Out                        0.000
  => GEOS-Chem Column                      184.639
  ===> Total Chemistry                     185.649
  => WRF                                   551.999
  ===> Total WRF-GC                        737.648
 max optd  7.8596619E+36
 max taucldi  8.5616566E-02
 max taucldw   1.719131    
 Switching is not necessary as we are already
 in the right domain!
 GIGC_Chunk_Run: Running for in-PET grid #           1
 GIGC_Chunk_Run: Received new grid IM, JM, LM =          15           9
          49
 =================================================
 W R F - G C   T I M E R S
    Domain           1 (Units: s)
 =================================================
  => Coupler Component                       1.040
   -- Physics & Parameterization             0.272
   -- Diagnostics Out                        0.000
  => GEOS-Chem Column                      185.652
  ===> Total Chemistry                     186.692
  => WRF                                   570.196
  ===> Total WRF-GC                        756.888
 max optd  7.8596619E+36
 max taucldi  8.7241679E-02
 max taucldw   1.598598    
 Switching is not necessary as we are already
 in the right domain!
 GIGC_Chunk_Run: Running for in-PET grid #           1
 GIGC_Chunk_Run: Received new grid IM, JM, LM =          15           9
          49
 =================================================
 W R F - G C   T I M E R S
    Domain           1 (Units: s)
 =================================================
  => Coupler Component                       1.074
   -- Physics & Parameterization             0.281
   -- Diagnostics Out                        0.000
  => GEOS-Chem Column                      186.679
  ===> Total Chemistry                     187.753
  => WRF                                   588.305
  ===> Total WRF-GC                        776.058
 max optd  7.8596619E+36
 max taucldi  8.9460738E-02
 max taucldw   1.445496    
 Switching is not necessary as we are already
 in the right domain!
 GIGC_Chunk_Run: Running for in-PET grid #           1
 GIGC_Chunk_Run: Received new grid IM, JM, LM =          15           9
          49
 =================================================
 W R F - G C   T I M E R S
    Domain           1 (Units: s)
 =================================================
  => Coupler Component                       1.108
   -- Physics & Parameterization             0.290
   -- Diagnostics Out                        0.000
  => GEOS-Chem Column                      187.704
  ===> Total Chemistry                     188.812
  => WRF                                   606.428
  ===> Total WRF-GC                        795.240
 max optd  7.8596619E+36
 max taucldi  8.8171713E-02
 max taucldw   1.229544    
 Switching is not necessary as we are already
 in the right domain!
 GIGC_Chunk_Run: Running for in-PET grid #           1
 GIGC_Chunk_Run: Received new grid IM, JM, LM =          15           9
          49
 =================================================
 W R F - G C   T I M E R S
    Domain           1 (Units: s)
 =================================================
  => Coupler Component                       1.141
   -- Physics & Parameterization             0.298
   -- Diagnostics Out                        0.000
  => GEOS-Chem Column                      188.730
  ===> Total Chemistry                     189.871
  => WRF                                   624.619
  ===> Total WRF-GC                        814.489
 max optd  7.8596619E+36
 max taucldi  8.4831722E-02
 max taucldw   1.036011    
 Switching is not necessary as we are already
 in the right domain!
 GIGC_Chunk_Run: Running for in-PET grid #           1
 GIGC_Chunk_Run: Received new grid IM, JM, LM =          15           9
          49
 =================================================
 W R F - G C   T I M E R S
    Domain           1 (Units: s)
 =================================================
  => Coupler Component                       1.175
   -- Physics & Parameterization             0.307
   -- Diagnostics Out                        0.000
  => GEOS-Chem Column                      189.756
  ===> Total Chemistry                     190.931
  => WRF                                   642.712
  ===> Total WRF-GC                        833.643
 max optd  7.8596619E+36
 max taucldi  8.1340753E-02
 max taucldw  0.7967900    
 Switching is not necessary as we are already
 in the right domain!
 GIGC_Chunk_Run: Running for in-PET grid #           1
 GIGC_Chunk_Run: Received new grid IM, JM, LM =          15           9
          49
 =================================================
 W R F - G C   T I M E R S
    Domain           1 (Units: s)
 =================================================
  => Coupler Component                       1.207
   -- Physics & Parameterization             0.316
   -- Diagnostics Out                        0.000
  => GEOS-Chem Column                      190.783
  ===> Total Chemistry                     191.990
  => WRF                                   660.821
  ===> Total WRF-GC                        852.811
 HOURLY EMISSIONS UPDATE TIME    10800.0       0.0
mediation_integrate: med_read_wrf_chem_emissions: Read emissions for time 2018-01-01_03:00:00
 max optd  7.8596619E+36
 max taucldi  7.7986717E-02
 max taucldw  0.7338638    
 Switching is not necessary as we are already
 in the right domain!
 GIGC_Chunk_Run: Running for in-PET grid #           1
 GIGC_Chunk_Run: Received new grid IM, JM, LM =          15           9
          49
 =================================================
 W R F - G C   T I M E R S
    Domain           1 (Units: s)
 =================================================
  => Coupler Component                       1.241
   -- Physics & Parameterization             0.325
   -- Diagnostics Out                        0.000
  => GEOS-Chem Column                      191.821
  ===> Total Chemistry                     193.061
  => WRF                                   678.989
  ===> Total WRF-GC                        872.050
 max optd  7.8596619E+36
 max taucldi  7.4612856E-02
 max taucldw  0.6880031    
 Switching is not necessary as we are already
 in the right domain!
 GIGC_Chunk_Run: Running for in-PET grid #           1
 GIGC_Chunk_Run: Received new grid IM, JM, LM =          15           9
          49
 =================================================
 W R F - G C   T I M E R S
    Domain           1 (Units: s)
 =================================================
  => Coupler Component                       1.276
   -- Physics & Parameterization             0.334
   -- Diagnostics Out                        0.000
  => GEOS-Chem Column                      192.844
  ===> Total Chemistry                     194.120
  => WRF                                   697.096
  ===> Total WRF-GC                        891.216
 max optd  7.8596619E+36
 max taucldi  7.0525952E-02
 max taucldw  0.6020426    
 Switching is not necessary as we are already
 in the right domain!
 GIGC_Chunk_Run: Running for in-PET grid #           1
 GIGC_Chunk_Run: Received new grid IM, JM, LM =          15           9
          49
 =================================================
 W R F - G C   T I M E R S
    Domain           1 (Units: s)
 =================================================
  => Coupler Component                       1.311
   -- Physics & Parameterization             0.342
   -- Diagnostics Out                        0.000
  => GEOS-Chem Column                      193.879
  ===> Total Chemistry                     195.191
  => WRF                                   715.224
  ===> Total WRF-GC                        910.415
 max optd  7.8596619E+36
 max taucldi  6.4525701E-02
 max taucldw  0.5133647    
 Switching is not necessary as we are already
 in the right domain!
 GIGC_Chunk_Run: Running for in-PET grid #           1
 GIGC_Chunk_Run: Received new grid IM, JM, LM =          15           9
          49
 =================================================
 W R F - G C   T I M E R S
    Domain           1 (Units: s)
 =================================================
  => Coupler Component                       1.344
   -- Physics & Parameterization             0.351
   -- Diagnostics Out                        0.000
  => GEOS-Chem Column                      194.907
  ===> Total Chemistry                     196.251
  => WRF                                   733.343
  ===> Total WRF-GC                        929.594
 max optd  7.8596619E+36
 max taucldi  5.7330541E-02
 max taucldw  0.4575365    
 Switching is not necessary as we are already
 in the right domain!
 GIGC_Chunk_Run: Running for in-PET grid #           1
 GIGC_Chunk_Run: Received new grid IM, JM, LM =          15           9
          49
 =================================================
 W R F - G C   T I M E R S
    Domain           1 (Units: s)
 =================================================
  => Coupler Component                       1.380
   -- Physics & Parameterization             0.360
   -- Diagnostics Out                        0.000
  => GEOS-Chem Column                      195.950
  ===> Total Chemistry                     197.330
  => WRF                                   751.442
  ===> Total WRF-GC                        948.772
 max optd  7.8596619E+36
 max taucldi  5.2193295E-02
 max taucldw  0.4747802    
 Switching is not necessary as we are already
 in the right domain!
 GIGC_Chunk_Run: Running for in-PET grid #           1
 GIGC_Chunk_Run: Received new grid IM, JM, LM =          15           9
          49
 =================================================
 W R F - G C   T I M E R S
    Domain           1 (Units: s)
 =================================================
  => Coupler Component                       1.418
   -- Physics & Parameterization             0.369
   -- Diagnostics Out                        0.000
  => GEOS-Chem Column                      196.968
  ===> Total Chemistry                     198.386
  => WRF                                   769.805
  ===> Total WRF-GC                        968.191
 max optd  7.8596619E+36
 max taucldi  4.6853364E-02
 max taucldw  0.5056265    
 Switching is not necessary as we are already
 in the right domain!
 GIGC_Chunk_Run: Running for in-PET grid #           1
 GIGC_Chunk_Run: Received new grid IM, JM, LM =          15           9
          49
 =================================================
 W R F - G C   T I M E R S
    Domain           1 (Units: s)
 =================================================
  => Coupler Component                       1.452
   -- Physics & Parameterization             0.378
   -- Diagnostics Out                        0.000
  => GEOS-Chem Column                      197.993
  ===> Total Chemistry                     199.446
  => WRF                                   788.015
  ===> Total WRF-GC                        987.460
 max optd  7.8596619E+36
 max taucldi  4.4616036E-02
 max taucldw  0.5190486    
 Switching is not necessary as we are already
 in the right domain!
 GIGC_Chunk_Run: Running for in-PET grid #           1
 GIGC_Chunk_Run: Received new grid IM, JM, LM =          15           9
          49
 =================================================
 W R F - G C   T I M E R S
    Domain           1 (Units: s)
 =================================================
  => Coupler Component                       1.487
   -- Physics & Parameterization             0.387
   -- Diagnostics Out                        0.000
  => GEOS-Chem Column                      199.041
  ===> Total Chemistry                     200.528
  => WRF                                   806.074
  ===> Total WRF-GC                       1006.601
 max optd  7.8596619E+36
 max taucldi  4.6214473E-02
 max taucldw  0.5228800    
 Switching is not necessary as we are already
 in the right domain!
 GIGC_Chunk_Run: Running for in-PET grid #           1
 GIGC_Chunk_Run: Received new grid IM, JM, LM =          15           9
          49
 =================================================
 W R F - G C   T I M E R S
    Domain           1 (Units: s)
 =================================================
  => Coupler Component                       1.520
   -- Physics & Parameterization             0.396
   -- Diagnostics Out                        0.000
  => GEOS-Chem Column                      200.104
  ===> Total Chemistry                     201.623
  => WRF                                   824.313
  ===> Total WRF-GC                       1025.936
 max optd  7.8596619E+36
 max taucldi  4.8088983E-02
 max taucldw  0.4939895    
 Switching is not necessary as we are already
 in the right domain!
 GIGC_Chunk_Run: Running for in-PET grid #           1
 GIGC_Chunk_Run: Received new grid IM, JM, LM =          15           9
          49
 =================================================
 W R F - G C   T I M E R S
    Domain           1 (Units: s)
 =================================================
  => Coupler Component                       1.554
   -- Physics & Parameterization             0.405
   -- Diagnostics Out                        0.000
  => GEOS-Chem Column                      201.135
  ===> Total Chemistry                     202.690
  => WRF                                   842.451
  ===> Total WRF-GC                       1045.140
 max optd  7.8596619E+36
 max taucldi  4.9829915E-02
 max taucldw  0.4229349    
 Switching is not necessary as we are already
 in the right domain!
 GIGC_Chunk_Run: Running for in-PET grid #           1
 GIGC_Chunk_Run: Received new grid IM, JM, LM =          15           9
          49
 =================================================
 W R F - G C   T I M E R S
    Domain           1 (Units: s)
 =================================================
  => Coupler Component                       1.586
   -- Physics & Parameterization             0.414
   -- Diagnostics Out                        0.000
  => GEOS-Chem Column                      202.246
  ===> Total Chemistry                     203.831
  => WRF                                   860.568
  ===> Total WRF-GC                       1064.399
 max optd  7.8596619E+36
 max taucldi  5.1321208E-02
 max taucldw  0.3760898    
 Switching is not necessary as we are already
 in the right domain!
 GIGC_Chunk_Run: Running for in-PET grid #           1
 GIGC_Chunk_Run: Received new grid IM, JM, LM =          15           9
          49
 =================================================
 W R F - G C   T I M E R S
    Domain           1 (Units: s)
 =================================================
  => Coupler Component                       1.623
   -- Physics & Parameterization             0.422
   -- Diagnostics Out                        0.000
  => GEOS-Chem Column                      203.263
  ===> Total Chemistry                     204.885
  => WRF                                   878.672
  ===> Total WRF-GC                       1083.557
 HOURLY EMISSIONS UPDATE TIME    14400.0       0.0
mediation_integrate: med_read_wrf_chem_emissions: Read emissions for time 2018-01-01_04:00:00
 max optd  7.8596619E+36
 max taucldi  5.2447356E-02
 max taucldw  0.3705704    
 Switching is not necessary as we are already
 in the right domain!
 GIGC_Chunk_Run: Running for in-PET grid #           1
 GIGC_Chunk_Run: Received new grid IM, JM, LM =          15           9
          49
 =================================================
 W R F - G C   T I M E R S
    Domain           1 (Units: s)
 =================================================
  => Coupler Component                       1.656
   -- Physics & Parameterization             0.431
   -- Diagnostics Out                        0.000
  => GEOS-Chem Column                      204.287
  ===> Total Chemistry                     205.944
  => WRF                                   896.846
  ===> Total WRF-GC                       1102.789
 max optd  7.8596619E+36
 max taucldi  5.3395297E-02
 max taucldw  0.3612570    
 Switching is not necessary as we are already
 in the right domain!
 GIGC_Chunk_Run: Running for in-PET grid #           1
 GIGC_Chunk_Run: Received new grid IM, JM, LM =          15           9
          49
 =================================================
 W R F - G C   T I M E R S
    Domain           1 (Units: s)
 =================================================
  => Coupler Component                       1.693
   -- Physics & Parameterization             0.440
   -- Diagnostics Out                        0.000
  => GEOS-Chem Column                      205.314
  ===> Total Chemistry                     207.007
  => WRF                                   915.015
  ===> Total WRF-GC                       1122.022
 max optd  7.8596619E+36
 max taucldi  5.4068223E-02
 max taucldw  0.4509392    
 Switching is not necessary as we are already
 in the right domain!
 GIGC_Chunk_Run: Running for in-PET grid #           1
 GIGC_Chunk_Run: Received new grid IM, JM, LM =          15           9
          49
 =================================================
 W R F - G C   T I M E R S
    Domain           1 (Units: s)
 =================================================
  => Coupler Component                       1.730
   -- Physics & Parameterization             0.448
   -- Diagnostics Out                        0.000
  => GEOS-Chem Column                      206.337
  ===> Total Chemistry                     208.067
  => WRF                                   933.267
  ===> Total WRF-GC                       1141.334
 max optd  7.8596619E+36
 max taucldi  5.5424940E-02
 max taucldw  0.5433586    
 Switching is not necessary as we are already
 in the right domain!
 GIGC_Chunk_Run: Running for in-PET grid #           1
 GIGC_Chunk_Run: Received new grid IM, JM, LM =          15           9
          49
 =================================================
 W R F - G C   T I M E R S
    Domain           1 (Units: s)
 =================================================
  => Coupler Component                       1.767
   -- Physics & Parameterization             0.457
   -- Diagnostics Out                        0.000
  => GEOS-Chem Column                      207.354
  ===> Total Chemistry                     209.121
  => WRF                                   951.418
  ===> Total WRF-GC                       1160.539
 max optd  7.8596619E+36
 max taucldi  5.5969294E-02
 max taucldw  0.5414004    
 Switching is not necessary as we are already
 in the right domain!
 GIGC_Chunk_Run: Running for in-PET grid #           1
 GIGC_Chunk_Run: Received new grid IM, JM, LM =          15           9
          49
 =================================================
 W R F - G C   T I M E R S
    Domain           1 (Units: s)
 =================================================
  => Coupler Component                       1.802
   -- Physics & Parameterization             0.466
   -- Diagnostics Out                        0.000
  => GEOS-Chem Column                      208.373
  ===> Total Chemistry                     210.175
  => WRF                                   969.608
  ===> Total WRF-GC                       1179.783
 max optd  7.8596619E+36
 max taucldi  5.6265213E-02
 max taucldw  0.6164150    
 Switching is not necessary as we are already
 in the right domain!
 GIGC_Chunk_Run: Running for in-PET grid #           1
 GIGC_Chunk_Run: Received new grid IM, JM, LM =          15           9
          49
 =================================================
 W R F - G C   T I M E R S
    Domain           1 (Units: s)
 =================================================
  => Coupler Component                       1.839
   -- Physics & Parameterization             0.474
   -- Diagnostics Out                        0.000
  => GEOS-Chem Column                      209.382
  ===> Total Chemistry                     211.221
  => WRF                                   987.793
  ===> Total WRF-GC                       1199.014
 max optd  7.8596619E+36
 max taucldi  5.6462750E-02
 max taucldw  0.6612806    
 Switching is not necessary as we are already
 in the right domain!
 GIGC_Chunk_Run: Running for in-PET grid #           1
 GIGC_Chunk_Run: Received new grid IM, JM, LM =          15           9
          49
 =================================================
 W R F - G C   T I M E R S
    Domain           1 (Units: s)
 =================================================
  => Coupler Component                       1.876
   -- Physics & Parameterization             0.483
   -- Diagnostics Out                        0.000
  => GEOS-Chem Column                      210.406
  ===> Total Chemistry                     212.282
  => WRF                                  1006.031
  ===> Total WRF-GC                       1218.313
 max optd  7.8596619E+36
 max taucldi  5.6431107E-02
 max taucldw  0.6837904    
 Switching is not necessary as we are already
 in the right domain!
 GIGC_Chunk_Run: Running for in-PET grid #           1
 GIGC_Chunk_Run: Received new grid IM, JM, LM =          15           9
          49
 =================================================
 W R F - G C   T I M E R S
    Domain           1 (Units: s)
 =================================================
  => Coupler Component                       1.912
   -- Physics & Parameterization             0.491
   -- Diagnostics Out                        0.000
  => GEOS-Chem Column                      211.417
  ===> Total Chemistry                     213.329
  => WRF                                  1024.171
  ===> Total WRF-GC                       1237.500
 max optd  7.8596619E+36
 max taucldi  5.6172606E-02
 max taucldw  0.6468076    
 Switching is not necessary as we are already
 in the right domain!
 GIGC_Chunk_Run: Running for in-PET grid #           1
 GIGC_Chunk_Run: Received new grid IM, JM, LM =          15           9
          49
 =================================================
 W R F - G C   T I M E R S
    Domain           1 (Units: s)
 =================================================
  => Coupler Component                       1.946
   -- Physics & Parameterization             0.500
   -- Diagnostics Out                        0.000
  => GEOS-Chem Column                      212.440
  ===> Total Chemistry                     214.386
  => WRF                                  1042.364
  ===> Total WRF-GC                       1256.750
 max optd  7.8596619E+36
 max taucldi  5.5678330E-02
 max taucldw  0.5968040    
 Switching is not necessary as we are already
 in the right domain!
 GIGC_Chunk_Run: Running for in-PET grid #           1
 GIGC_Chunk_Run: Received new grid IM, JM, LM =          15           9
          49
 =================================================
 W R F - G C   T I M E R S
    Domain           1 (Units: s)
 =================================================
  => Coupler Component                       1.982
   -- Physics & Parameterization             0.509
   -- Diagnostics Out                        0.000
  => GEOS-Chem Column                      213.460
  ===> Total Chemistry                     215.442
  => WRF                                  1060.522
  ===> Total WRF-GC                       1275.964
 max optd  7.8596619E+36
 max taucldi  5.6734875E-02
 max taucldw  0.6364750    
 Switching is not necessary as we are already
 in the right domain!
 GIGC_Chunk_Run: Running for in-PET grid #           1
 GIGC_Chunk_Run: Received new grid IM, JM, LM =          15           9
          49
 =================================================
 W R F - G C   T I M E R S
    Domain           1 (Units: s)
 =================================================
  => Coupler Component                       2.016
   -- Physics & Parameterization             0.518
   -- Diagnostics Out                        0.000
  => GEOS-Chem Column                      214.486
  ===> Total Chemistry                     216.502
  => WRF                                  1078.649
  ===> Total WRF-GC                       1295.151
 max optd  7.8596619E+36
 max taucldi  5.5906922E-02
 max taucldw  0.6631482    
 Switching is not necessary as we are already
 in the right domain!
 GIGC_Chunk_Run: Running for in-PET grid #           1
 GIGC_Chunk_Run: Received new grid IM, JM, LM =          15           9
          49
 =================================================
 W R F - G C   T I M E R S
    Domain           1 (Units: s)
 =================================================
  => Coupler Component                       2.049
   -- Physics & Parameterization             0.526
   -- Diagnostics Out                        0.000
  => GEOS-Chem Column                      215.506
  ===> Total Chemistry                     217.555
  => WRF                                  1096.750
  ===> Total WRF-GC                       1314.305
 HOURLY EMISSIONS UPDATE TIME    18000.0       0.0
mediation_integrate: med_read_wrf_chem_emissions: Read emissions for time 2018-01-01_05:00:00
 max optd  7.8596619E+36
 max taucldi  5.5538233E-02
 max taucldw  0.6866300    
 Switching is not necessary as we are already
 in the right domain!
 GIGC_Chunk_Run: Running for in-PET grid #           1
 GIGC_Chunk_Run: Received new grid IM, JM, LM =          15           9
          49
 =================================================
 W R F - G C   T I M E R S
    Domain           1 (Units: s)
 =================================================
  => Coupler Component                       2.084
   -- Physics & Parameterization             0.535
   -- Diagnostics Out                        0.000
  => GEOS-Chem Column                      216.561
  ===> Total Chemistry                     218.644
  => WRF                                  1114.964
  ===> Total WRF-GC                       1333.608
 max optd  7.8596619E+36
 max taucldi  5.6687169E-02
 max taucldw  0.6841897    
 Switching is not necessary as we are already
 in the right domain!
 GIGC_Chunk_Run: Running for in-PET grid #           1
 GIGC_Chunk_Run: Received new grid IM, JM, LM =          15           9
          49
 =================================================
 W R F - G C   T I M E R S
    Domain           1 (Units: s)
 =================================================
  => Coupler Component                       2.117
   -- Physics & Parameterization             0.544
   -- Diagnostics Out                        0.000
  => GEOS-Chem Column                      217.618
  ===> Total Chemistry                     219.735
  => WRF                                  1133.061
  ===> Total WRF-GC                       1352.796
 max optd  7.8596619E+36
 max taucldi  5.7608340E-02
 max taucldw  0.6102481    
 Switching is not necessary as we are already
 in the right domain!
 GIGC_Chunk_Run: Running for in-PET grid #           1
 GIGC_Chunk_Run: Received new grid IM, JM, LM =          15           9
          49
 =================================================
 W R F - G C   T I M E R S
    Domain           1 (Units: s)
 =================================================
  => Coupler Component                       2.151
   -- Physics & Parameterization             0.552
   -- Diagnostics Out                        0.000
  => GEOS-Chem Column                      218.631
  ===> Total Chemistry                     220.782
  => WRF                                  1151.170
  ===> Total WRF-GC                       1371.952
 max optd  7.8596619E+36
 max taucldi  5.8556363E-02
 max taucldw  0.6091324    
 Switching is not necessary as we are already
 in the right domain!
 GIGC_Chunk_Run: Running for in-PET grid #           1
 GIGC_Chunk_Run: Received new grid IM, JM, LM =          15           9
          49
 =================================================
 W R F - G C   T I M E R S
    Domain           1 (Units: s)
 =================================================
  => Coupler Component                       2.187
   -- Physics & Parameterization             0.561
   -- Diagnostics Out                        0.000
  => GEOS-Chem Column                      219.652
  ===> Total Chemistry                     221.839
  => WRF                                  1169.350
  ===> Total WRF-GC                       1391.189
 max optd  7.8596619E+36
 max taucldi  5.8428582E-02
 max taucldw  0.6265119    
 Switching is not necessary as we are already
 in the right domain!
 GIGC_Chunk_Run: Running for in-PET grid #           1
 GIGC_Chunk_Run: Received new grid IM, JM, LM =          15           9
          49
 =================================================
 W R F - G C   T I M E R S
    Domain           1 (Units: s)
 =================================================
  => Coupler Component                       2.222
   -- Physics & Parameterization             0.569
   -- Diagnostics Out                        0.000
  => GEOS-Chem Column                      220.671
  ===> Total Chemistry                     222.893
  => WRF                                  1187.568
  ===> Total WRF-GC                       1410.460
 max optd  7.8596619E+36
 max taucldi  5.7749379E-02
 max taucldw  0.6348029    
 Switching is not necessary as we are already
 in the right domain!
 GIGC_Chunk_Run: Running for in-PET grid #           1
 GIGC_Chunk_Run: Received new grid IM, JM, LM =          15           9
          49
 =================================================
 W R F - G C   T I M E R S
    Domain           1 (Units: s)
 =================================================
  => Coupler Component                       2.257
   -- Physics & Parameterization             0.578
   -- Diagnostics Out                        0.000
  => GEOS-Chem Column                      221.704
  ===> Total Chemistry                     223.961
  => WRF                                  1205.692
  ===> Total WRF-GC                       1429.653
 max optd  7.8596619E+36
 max taucldi  5.6941535E-02
 max taucldw  0.6521568    
 Switching is not necessary as we are already
 in the right domain!
 GIGC_Chunk_Run: Running for in-PET grid #           1
 GIGC_Chunk_Run: Received new grid IM, JM, LM =          15           9
          49
 =================================================
 W R F - G C   T I M E R S
    Domain           1 (Units: s)
 =================================================
  => Coupler Component                       2.291
   -- Physics & Parameterization             0.587
   -- Diagnostics Out                        0.000
  => GEOS-Chem Column                      222.732
  ===> Total Chemistry                     225.023
  => WRF                                  1223.912
  ===> Total WRF-GC                       1448.935
 max optd  7.8596619E+36
 max taucldi  5.6093477E-02
 max taucldw  0.6563827    
 Switching is not necessary as we are already
 in the right domain!
 GIGC_Chunk_Run: Running for in-PET grid #           1
 GIGC_Chunk_Run: Received new grid IM, JM, LM =          15           9
          49
 =================================================
 W R F - G C   T I M E R S
    Domain           1 (Units: s)
 =================================================
  => Coupler Component                       2.325
   -- Physics & Parameterization             0.595
   -- Diagnostics Out                        0.000
  => GEOS-Chem Column                      223.758
  ===> Total Chemistry                     226.083
  => WRF                                  1242.051
  ===> Total WRF-GC                       1468.134
 max optd  7.8596619E+36
 max taucldi  5.5621274E-02
 max taucldw  0.6569482    
 Switching is not necessary as we are already
 in the right domain!
 GIGC_Chunk_Run: Running for in-PET grid #           1
 GIGC_Chunk_Run: Received new grid IM, JM, LM =          15           9
          49
 =================================================
 W R F - G C   T I M E R S
    Domain           1 (Units: s)
 =================================================
  => Coupler Component                       2.359
   -- Physics & Parameterization             0.604
   -- Diagnostics Out                        0.000
  => GEOS-Chem Column                      224.784
  ===> Total Chemistry                     227.143
  => WRF                                  1260.255
  ===> Total WRF-GC                       1487.397
 max optd  7.8596619E+36
 max taucldi  5.5486932E-02
 max taucldw  0.7019896    
 Switching is not necessary as we are already
 in the right domain!
 GIGC_Chunk_Run: Running for in-PET grid #           1
 GIGC_Chunk_Run: Received new grid IM, JM, LM =          15           9
          49
 =================================================
 W R F - G C   T I M E R S
    Domain           1 (Units: s)
 =================================================
  => Coupler Component                       2.392
   -- Physics & Parameterization             0.612
   -- Diagnostics Out                        0.000
  => GEOS-Chem Column                      225.836
  ===> Total Chemistry                     228.228
  => WRF                                  1278.695
  ===> Total WRF-GC                       1506.923
 max optd  7.8596619E+36
 max taucldi  5.6019243E-02
 max taucldw  0.8084679    
 Switching is not necessary as we are already
 in the right domain!
 GIGC_Chunk_Run: Running for in-PET grid #           1
 GIGC_Chunk_Run: Received new grid IM, JM, LM =          15           9
          49
 =================================================
 W R F - G C   T I M E R S
    Domain           1 (Units: s)
 =================================================
  => Coupler Component                       2.429
   -- Physics & Parameterization             0.621
   -- Diagnostics Out                        0.000
  => GEOS-Chem Column                      226.847
  ===> Total Chemistry                     229.277
  => WRF                                  1296.832
  ===> Total WRF-GC                       1526.109
 max optd  7.8596619E+36
 max taucldi  5.7606351E-02
 max taucldw  0.8979979    
 Switching is not necessary as we are already
 in the right domain!
 GIGC_Chunk_Run: Running for in-PET grid #           1
 GIGC_Chunk_Run: Received new grid IM, JM, LM =          15           9
          49
 =================================================
 W R F - G C   T I M E R S
    Domain           1 (Units: s)
 =================================================
  => Coupler Component                       2.462
   -- Physics & Parameterization             0.630
   -- Diagnostics Out                        0.000
  => GEOS-Chem Column                      227.866
  ===> Total Chemistry                     230.328
  => WRF                                  1315.013
  ===> Total WRF-GC                       1545.341
 HOURLY EMISSIONS UPDATE TIME    21600.0       0.0
mediation_integrate: med_read_wrf_chem_emissions: Read emissions for time 2018-01-01_06:00:00
 max optd  7.8596619E+36
 max taucldi  5.9546247E-02
 max taucldw  0.9602789    
 Switching is not necessary as we are already
 in the right domain!
 GIGC_Chunk_Run: Running for in-PET grid #           1
 GIGC_Chunk_Run: Received new grid IM, JM, LM =          15           9
          49
 =================================================
 W R F - G C   T I M E R S
    Domain           1 (Units: s)
 =================================================
  => Coupler Component                       2.496
   -- Physics & Parameterization             0.639
   -- Diagnostics Out                        0.000
  => GEOS-Chem Column                      228.905
  ===> Total Chemistry                     231.401
  => WRF                                  1773.713
  ===> Total WRF-GC                       2005.114
 max optd  7.8596619E+36
 max taucldi  5.9283141E-02
 max taucldw  0.9764391    
 Switching is not necessary as we are already
 in the right domain!
 GIGC_Chunk_Run: Running for in-PET grid #           1
 GIGC_Chunk_Run: Received new grid IM, JM, LM =          15           9
          49
 =================================================
 W R F - G C   T I M E R S
    Domain           1 (Units: s)
 =================================================
  => Coupler Component                       2.529
   -- Physics & Parameterization             0.648
   -- Diagnostics Out                        0.000
  => GEOS-Chem Column                      229.945
  ===> Total Chemistry                     232.474
  => WRF                                  1791.872
  ===> Total WRF-GC                       2024.346
 max optd  7.8596619E+36
 max taucldi  5.7312880E-02
 max taucldw   1.038588    
 Switching is not necessary as we are already
 in the right domain!
 GIGC_Chunk_Run: Running for in-PET grid #           1
 GIGC_Chunk_Run: Received new grid IM, JM, LM =          15           9
          49
 =================================================
 W R F - G C   T I M E R S
    Domain           1 (Units: s)
 =================================================
  => Coupler Component                       2.564
   -- Physics & Parameterization             0.657
   -- Diagnostics Out                        0.000
  => GEOS-Chem Column                      230.967
  ===> Total Chemistry                     233.531
  => WRF                                  1810.168
  ===> Total WRF-GC                       2043.699
 max optd  7.8596619E+36
 max taucldi  5.5983718E-02
 max taucldw   1.052958    
 Switching is not necessary as we are already
 in the right domain!
 GIGC_Chunk_Run: Running for in-PET grid #           1
 GIGC_Chunk_Run: Received new grid IM, JM, LM =          15           9
          49
 =================================================
 W R F - G C   T I M E R S
    Domain           1 (Units: s)
 =================================================
  => Coupler Component                       2.595
[...]
  => GEOS-Chem Column                      277.095
  ===> Total Chemistry                     281.214
  => WRF                                  2629.801
  ===> Total WRF-GC                       2911.014
 HOURLY EMISSIONS UPDATE TIME    36000.0       0.0
mediation_integrate: med_read_wrf_chem_emissions: Read emissions for time 2018-01-01_10:00:00
 max optd  7.8596619E+36
 max taucldi  4.3340601E-02
 max taucldw   1.122651    
 Switching is not necessary as we are already
 in the right domain!
 GIGC_Chunk_Run: Running for in-PET grid #           1
 GIGC_Chunk_Run: Received new grid IM, JM, LM =          15           9
          49
 =================================================
 W R F - G C   T I M E R S
    Domain           1 (Units: s)
 =================================================
  => Coupler Component                       4.154
   -- Physics & Parameterization             1.058
   -- Diagnostics Out                        0.000
  => GEOS-Chem Column                      278.114
  ===> Total Chemistry                     282.269
  => WRF                                  2648.077
  ===> Total WRF-GC                       2930.346
 max optd  7.8596619E+36
 max taucldi  4.4100069E-02
 max taucldw   1.149098    
 Switching is not necessary as we are already
 in the right domain!
 GIGC_Chunk_Run: Running for in-PET grid #           1
 GIGC_Chunk_Run: Received new grid IM, JM, LM =          15           9
          49
 =================================================
 W R F - G C   T I M E R S
    Domain           1 (Units: s)
 =================================================
  => Coupler Component                       4.188
   -- Physics & Parameterization             1.067
   -- Diagnostics Out                        0.000
  => GEOS-Chem Column                      279.140
  ===> Total Chemistry                     283.328
  => WRF                                  2666.272
  ===> Total WRF-GC                       2949.600
 max optd  7.8596619E+36
 max taucldi  4.4715874E-02
 max taucldw   1.162310    
 Switching is not necessary as we are already
 in the right domain!
 GIGC_Chunk_Run: Running for in-PET grid #           1
 GIGC_Chunk_Run: Received new grid IM, JM, LM =          15           9
          49
 =================================================
 W R F - G C   T I M E R S
    Domain           1 (Units: s)
 =================================================
  => Coupler Component                       4.223
   -- Physics & Parameterization             1.076
   -- Diagnostics Out                        0.000
  => GEOS-Chem Column                      280.163
  ===> Total Chemistry                     284.385
  => WRF                                  2684.445
  ===> Total WRF-GC                       2968.831
 max optd  7.8596619E+36
 max taucldi  4.3859407E-02
 max taucldw   1.156953    
 Switching is not necessary as we are already
 in the right domain!
 GIGC_Chunk_Run: Running for in-PET grid #           1
 GIGC_Chunk_Run: Received new grid IM, JM, LM =          15           9
          49
 =================================================
 W R F - G C   T I M E R S
    Domain           1 (Units: s)
 =================================================
  => Coupler Component                       4.259
   -- Physics & Parameterization             1.085
   -- Diagnostics Out                        0.000
  => GEOS-Chem Column                      281.170
  ===> Total Chemistry                     285.429
  => WRF                                  2702.721
  ===> Total WRF-GC                       2988.150
 max optd  7.8596619E+36
 max taucldi  4.2884625E-02
 max taucldw   1.164324    
 Switching is not necessary as we are already
 in the right domain!
 GIGC_Chunk_Run: Running for in-PET grid #           1
 GIGC_Chunk_Run: Received new grid IM, JM, LM =          15           9
          49
 =================================================
 W R F - G C   T I M E R S
    Domain           1 (Units: s)
 =================================================
  => Coupler Component                       4.292
   -- Physics & Parameterization             1.094
   -- Diagnostics Out                        0.000
  => GEOS-Chem Column                      282.194
  ===> Total Chemistry                     286.486
  => WRF                                  2720.953
  ===> Total WRF-GC                       3007.439
 max optd  7.8596619E+36
 max taucldi  4.2107940E-02
 max taucldw   1.258234    
 Switching is not necessary as we are already
 in the right domain!
 GIGC_Chunk_Run: Running for in-PET grid #           1
 GIGC_Chunk_Run: Received new grid IM, JM, LM =          15           9
          49
 =================================================
 W R F - G C   T I M E R S
    Domain           1 (Units: s)
 =================================================
  => Coupler Component                       4.325
   -- Physics & Parameterization             1.103
   -- Diagnostics Out                        0.000
  => GEOS-Chem Column                      283.222
  ===> Total Chemistry                     287.547
  => WRF                                  2739.086
  ===> Total WRF-GC                       3026.633
 max optd  7.8596619E+36
 max taucldi  4.0896993E-02
 max taucldw   1.298946    
 Switching is not necessary as we are already
 in the right domain!
 GIGC_Chunk_Run: Running for in-PET grid #           1
 GIGC_Chunk_Run: Received new grid IM, JM, LM =          15           9
          49
 =================================================
 W R F - G C   T I M E R S
    Domain           1 (Units: s)
 =================================================
  => Coupler Component                       4.361
   -- Physics & Parameterization             1.112
   -- Diagnostics Out                        0.000
  => GEOS-Chem Column                      284.246
  ===> Total Chemistry                     288.607
  => WRF                                  2757.308
  ===> Total WRF-GC                       3045.915
 max optd  7.8596619E+36
 max taucldi  3.8828224E-02
 max taucldw   1.316083    
 Switching is not necessary as we are already
 in the right domain!
 GIGC_Chunk_Run: Running for in-PET grid #           1
 GIGC_Chunk_Run: Received new grid IM, JM, LM =          15           9
          49
 =================================================
 W R F - G C   T I M E R S
    Domain           1 (Units: s)
 =================================================
  => Coupler Component                       4.394
   -- Physics & Parameterization             1.121
   -- Diagnostics Out                        0.000
  => GEOS-Chem Column                      285.267
  ===> Total Chemistry                     289.662
  => WRF                                  2775.506
  ===> Total WRF-GC                       3065.168
 max optd  7.8596619E+36
 max taucldi  3.6737617E-02
 max taucldw   1.351448    
 Switching is not necessary as we are already
 in the right domain!
 GIGC_Chunk_Run: Running for in-PET grid #           1
 GIGC_Chunk_Run: Received new grid IM, JM, LM =          15           9
          49
 =================================================
 W R F - G C   T I M E R S
    Domain           1 (Units: s)
 =================================================
  => Coupler Component                       4.431
   -- Physics & Parameterization             1.129
   -- Diagnostics Out                        0.000
  => GEOS-Chem Column                      286.294
  ===> Total Chemistry                     290.725
  => WRF                                  2793.672
  ===> Total WRF-GC                       3084.397
 max optd  7.8596619E+36
 max taucldi  3.4987930E-02
 max taucldw   1.432778    
 Switching is not necessary as we are already
 in the right domain!
 GIGC_Chunk_Run: Running for in-PET grid #           1
 GIGC_Chunk_Run: Received new grid IM, JM, LM =          15           9
          49
 =================================================
 W R F - G C   T I M E R S
    Domain           1 (Units: s)
 =================================================
  => Coupler Component                       4.464
   -- Physics & Parameterization             1.138
   -- Diagnostics Out                        0.000
  => GEOS-Chem Column                      287.328
  ===> Total Chemistry                     291.792
  => WRF                                  2811.929
  ===> Total WRF-GC                       3103.722
 max optd  7.8596619E+36
 max taucldi  3.3245601E-02
 max taucldw   1.410792    
 Switching is not necessary as we are already
 in the right domain!
 GIGC_Chunk_Run: Running for in-PET grid #           1
 GIGC_Chunk_Run: Received new grid IM, JM, LM =          15           9
          49
 =================================================
 W R F - G C   T I M E R S
    Domain           1 (Units: s)
 =================================================
  => Coupler Component                       4.498
   -- Physics & Parameterization             1.147
   -- Diagnostics Out                        0.000
  => GEOS-Chem Column                      288.348
  ===> Total Chemistry                     292.846
  => WRF                                  2830.104
  ===> Total WRF-GC                       3122.950
 max optd  7.8596619E+36
 max taucldi  3.2400243E-02
 max taucldw   1.299187    
 Switching is not necessary as we are already
 in the right domain!
 GIGC_Chunk_Run: Running for in-PET grid #           1
 GIGC_Chunk_Run: Received new grid IM, JM, LM =          15           9
          49
 =================================================
 W R F - G C   T I M E R S
    Domain           1 (Units: s)
 =================================================
  => Coupler Component                       4.530
   -- Physics & Parameterization             1.156
   -- Diagnostics Out                        0.000
  => GEOS-Chem Column                      289.399
  ===> Total Chemistry                     293.929
  => WRF                                  2848.345
  ===> Total WRF-GC                       3142.274
 HOURLY EMISSIONS UPDATE TIME    39600.0       0.0
mediation_integrate: med_read_wrf_chem_emissions: Read emissions for time 2018-01-01_11:00:00
 max optd  7.8596619E+36
 max taucldi  3.1247193E-02
 max taucldw   1.320677    
 Switching is not necessary as we are already
 in the right domain!
 GIGC_Chunk_Run: Running for in-PET grid #           1
 GIGC_Chunk_Run: Received new grid IM, JM, LM =          15           9
          49
 =================================================
 W R F - G C   T I M E R S
    Domain           1 (Units: s)
 =================================================
  => Coupler Component                       4.567
   -- Physics & Parameterization             1.165
   -- Diagnostics Out                        0.000
  => GEOS-Chem Column                      290.416
  ===> Total Chemistry                     294.982
  => WRF                                  2866.529
  ===> Total WRF-GC                       3161.511
 max optd  7.8596619E+36
 max taucldi  2.9053533E-02
 max taucldw   1.369258    
 Switching is not necessary as we are already
 in the right domain!
 GIGC_Chunk_Run: Running for in-PET grid #           1
 GIGC_Chunk_Run: Received new grid IM, JM, LM =          15           9
          49
 =================================================
 W R F - G C   T I M E R S
    Domain           1 (Units: s)
 =================================================
  => Coupler Component                       4.601
   -- Physics & Parameterization             1.174
   -- Diagnostics Out                        0.000
  => GEOS-Chem Column                      291.434
  ===> Total Chemistry                     296.035
  => WRF                                  2884.709
  ===> Total WRF-GC                       3180.744
 max optd  7.8596619E+36
 max taucldi  2.7206931E-02
 max taucldw   1.435649    
 Switching is not necessary as we are already
 in the right domain!
 GIGC_Chunk_Run: Running for in-PET grid #           1
 GIGC_Chunk_Run: Received new grid IM, JM, LM =          15           9
          49
 =================================================
 W R F - G C   T I M E R S
    Domain           1 (Units: s)
 =================================================
  => Coupler Component                       4.636
   -- Physics & Parameterization             1.183
   -- Diagnostics Out                        0.000
  => GEOS-Chem Column                      292.462
  ===> Total Chemistry                     297.099
  => WRF                                  2902.989
  ===> Total WRF-GC                       3200.087
 max optd  7.8596619E+36
 max taucldi  2.6923859E-02
 max taucldw   1.529480    
 Switching is not necessary as we are already
 in the right domain!
 GIGC_Chunk_Run: Running for in-PET grid #           1
 GIGC_Chunk_Run: Received new grid IM, JM, LM =          15           9
          49
 =================================================
 W R F - G C   T I M E R S
    Domain           1 (Units: s)
 =================================================
  => Coupler Component                       4.672
   -- Physics & Parameterization             1.192
   -- Diagnostics Out                        0.000
  => GEOS-Chem Column                      293.480
  ===> Total Chemistry                     298.152
  => WRF                                  2921.297
  ===> Total WRF-GC                       3219.449
 max optd  7.8596619E+36
 max taucldi  2.7124269E-02
 max taucldw   1.592852    
 Switching is not necessary as we are already
 in the right domain!
 GIGC_Chunk_Run: Running for in-PET grid #           1
 GIGC_Chunk_Run: Received new grid IM, JM, LM =          15           9
          49
 =================================================
 W R F - G C   T I M E R S
    Domain           1 (Units: s)
 =================================================
  => Coupler Component                       4.707
   -- Physics & Parameterization             1.202
   -- Diagnostics Out                        0.000
  => GEOS-Chem Column                      294.497
  ===> Total Chemistry                     299.204
  => WRF                                  2939.756
  ===> Total WRF-GC                       3238.961
 max optd  7.8596619E+36
 max taucldi  2.7418330E-02
 max taucldw   1.640982    
 Switching is not necessary as we are already
 in the right domain!
 GIGC_Chunk_Run: Running for in-PET grid #           1
 GIGC_Chunk_Run: Received new grid IM, JM, LM =          15           9
          49
 =================================================
 W R F - G C   T I M E R S
    Domain           1 (Units: s)
 =================================================
  => Coupler Component                       4.739
   -- Physics & Parameterization             1.210
   -- Diagnostics Out                        0.000
  => GEOS-Chem Column                      295.513
  ===> Total Chemistry                     300.252
  => WRF                                  2958.193
  ===> Total WRF-GC                       3258.445
 max optd  7.8596619E+36
 max taucldi  2.7656844E-02
 max taucldw   1.672378    
 Switching is not necessary as we are already
 in the right domain!
 GIGC_Chunk_Run: Running for in-PET grid #           1
 GIGC_Chunk_Run: Received new grid IM, JM, LM =          15           9
          49
 =================================================
 W R F - G C   T I M E R S
    Domain           1 (Units: s)
 =================================================
  => Coupler Component                       4.773
   -- Physics & Parameterization             1.219
   -- Diagnostics Out                        0.000
  => GEOS-Chem Column                      296.540
  ===> Total Chemistry                     301.313
  => WRF                                  2976.780
  ===> Total WRF-GC                       3278.093
 max optd  7.8596619E+36
 max taucldi  2.7929738E-02
 max taucldw   1.655083    
 Switching is not necessary as we are already
 in the right domain!
 GIGC_Chunk_Run: Running for in-PET grid #           1
 GIGC_Chunk_Run: Received new grid IM, JM, LM =          15           9
          49
 =================================================
 W R F - G C   T I M E R S
    Domain           1 (Units: s)
 =================================================
  => Coupler Component                       4.808
   -- Physics & Parameterization             1.228
   -- Diagnostics Out                        0.000
  => GEOS-Chem Column                      297.564
  ===> Total Chemistry                     302.372
  => WRF                                  2995.376
  ===> Total WRF-GC                       3297.748
 max optd  7.8596619E+36
 max taucldi  2.8019128E-02
 max taucldw   1.758329    
 Switching is not necessary as we are already
 in the right domain!
 GIGC_Chunk_Run: Running for in-PET grid #           1
 GIGC_Chunk_Run: Received new grid IM, JM, LM =          15           9
          49
 =================================================
 W R F - G C   T I M E R S
    Domain           1 (Units: s)
 =================================================
  => Coupler Component                       4.843
   -- Physics & Parameterization             1.237
   -- Diagnostics Out                        0.000
  => GEOS-Chem Column                      298.590
  ===> Total Chemistry                     303.433
  => WRF                                  3014.107
  ===> Total WRF-GC                       3317.540
 max optd  7.8596619E+36
 max taucldi  2.7609935E-02
 max taucldw   1.892755    
 Switching is not necessary as we are already
 in the right domain!
 GIGC_Chunk_Run: Running for in-PET grid #           1
 GIGC_Chunk_Run: Received new grid IM, JM, LM =          15           9
          49
 =================================================
 W R F - G C   T I M E R S
    Domain           1 (Units: s)
 =================================================
  => Coupler Component                       4.878
   -- Physics & Parameterization             1.246
   -- Diagnostics Out                        0.000
  => GEOS-Chem Column                      299.626
  ===> Total Chemistry                     304.504
  => WRF                                  3033.048
  ===> Total WRF-GC                       3337.552
 max optd  7.8596619E+36
 max taucldi  2.7247192E-02
 max taucldw   1.983456    
 Switching is not necessary as we are already
 in the right domain!
 GIGC_Chunk_Run: Running for in-PET grid #           1
 GIGC_Chunk_Run: Received new grid IM, JM, LM =          15           9
          49
 =================================================
 W R F - G C   T I M E R S
    Domain           1 (Units: s)
 =================================================
  => Coupler Component                       4.912
   -- Physics & Parameterization             1.255
   -- Diagnostics Out                        0.000
  => GEOS-Chem Column                      300.689
  ===> Total Chemistry                     305.600
  => WRF                                  3051.877
  ===> Total WRF-GC                       3357.477
 max optd  7.8596619E+36
 max taucldi  2.6846498E-02
 max taucldw   2.052417    
 Switching is not necessary as we are already
 in the right domain!
 GIGC_Chunk_Run: Running for in-PET grid #           1
 GIGC_Chunk_Run: Received new grid IM, JM, LM =          15           9
          49
 =================================================
 W R F - G C   T I M E R S
    Domain           1 (Units: s)
 =================================================
  => Coupler Component                       4.944
   -- Physics & Parameterization             1.263
   -- Diagnostics Out                        0.000
  => GEOS-Chem Column                      301.707
  ===> Total Chemistry                     306.650
  => WRF                                  3070.621
  ===> Total WRF-GC                       3377.271
d01 2018-01-01_12:00:00 wrf: SUCCESS COMPLETE WRF
