taskid: 1147 hostname: ip-172-31-3-202
Quilting with   1 groups of   0 I/O tasks.
 Ntasks in X           64 , ntasks in Y           72
--- WARNING: traj_opt is zero, but num_traj is not zero; setting num_traj to zero.
--- NOTE: sst_update is 0, setting io_form_auxinput4 = 0 and auxinput4_interval = 0 for all domains
--- NOTE: grid_fdda is 0 for domain      1, setting gfdda interval and ending time to 0 for that domain.
--- NOTE: both grid_sfdda and pxlsm_soil_nudge are 0 for domain      1, setting sgfdda interval and ending time to 0 for that domain.
--- NOTE: obs_nudge_opt is 0 for domain      1, setting obs nudging interval and ending time to 0 for that domain.
--- NOTE: bl_pbl_physics /= 4, implies mfshconv must be 0, resetting
Need MYNN PBL for icloud_bl = 1, resetting to 0
*************************************
No physics suite selected.
Physics options will be used directly from the namelist.
*************************************
--- NOTE: RRTMG radiation is in use, setting:  levsiz=59, alevsiz=12, no_src_types=6
--- NOTE: num_soil_layers has been set to      4
WRF V3.9.1.1 MODEL
 *************************************
 Parent domain
 ids,ide,jds,jde            1         950           1         650
 ims,ime,jms,jme          869         897         148         170
 ips,ipe,jps,jpe          876         890         155         163
 *************************************
DYNAMICS OPTION: Eulerian Mass Coordinate
   alloc_space_field: domain            1 ,              203623800  bytes allocated
  med_initialdata_input: calling input_input
Max map factor in domain 1 =  1.40. Scale the dt in the model accordingly.
INPUT LandUse = "USGS"
 LANDUSE TYPE = "USGS" FOUND          33  CATEGORIES           2  SEASONS WATER CATEGORY =           16  SNOW CATEGORY =           24
INITIALIZE THREE Noah LSM RELATED TABLES
*****************************************************************
  __          _______  ______       _____  _____ _    _ _____
  \ \        / /  __ \|  ____|     / ____|/ ____| |  | |  __ \
   \ \  /\  / /| |__) | |__ ______| |  __| |    | |__| | |__) |
    \ \/  \/ / |  _  /|  __|______| | |_ | |    |  __  |  ___/
     \  /\  /  | | \ \| |         | |__| | |____| |  | | |
      \/  \/   |_|  \_\_|          \_____|\_____|_|  |_|_|
*****************************************************************
         WRF-GC MODEL, VERSION 1811.11 - WRF BINDINGS
 For errors, suggestions & feedback email linhaipeng@pku.edu.cn
*****************************************************************
    This is domain            1
 ### GIGC_Stateful_Mod: Root CPU, after READ_INPUT_FILE
  Linoz Data:  O3 climatology :                  z*=10, 12, ..., 58                             2.700E-08 1.083E-05
  Linoz Data:  Temperature climatology :         z*=10, 12, ..., 58                             1.859E+02 2.904E+02
  Linoz Data:  Column O3 above box climalology : z*=10, 12, ..., 58                             7.538E-02 3.770E+02
  Linoz Data:  P-L O3 climatology (mr/s):        z*=10, 12, ..., 58                            -1.590E-10 2.835E-11
  Linoz Data:  d(P-L)/dO3 (1/s) :                z*=10, 12, ..., 58                            -8.386E-04 7.556E-09
  Linoz Data:  d(P-L)/dT (mr/K) :                z*=10, 12, ..., 58                            -5.742E-12 4.615E-14
  Linoz Data:  d(P-L)/d(column O3) (mr/DU) :     z*=10, 12, ..., 58                            -1.921E-12 5.038E-10
 ### GIGC_Stateful_Mod: Root CPU, after LINOZ_READ
 %%%%%%%%% GIGC IN-PET GRID SWITCHING HACKS %%%%%%%%%
     (Not very) Proudly brought to you by hplin      
 Some debug information:
 ID:           1
 IM, JM, LM:          15           9          49  will be set as PAR
 Allocs: CMN T GC F
 RC at entry-point:           0
 %%%%%%%%%%%%%%%%%%%%%%%%%%%%%%%%%%%%%%%%%%%%%%%%%%%%
 No need to switch HcoState for ID           1
 Exit RC:            0
 %%%%%%%%%    FINISHED GIGC_Switch_Dims    %%%%%%%%%
 GIGC_Chunk_Init: Received new grid IM, JM, LM =          15           9
          49
     ### GIGC_INIT_SIMULATION: after Input_Opt% setups
     ### GIGC_INIT_SIMULATION: after GC_Init_All
     ### GIGC_INIT_SIMULATION: after GC_Init_Extra
     ### GIGC_INIT_SIMULATION: after INIT_FJX
 # GIGC_CHUNK_MOD: after SV save, ID =           1
 WRFGC chemics_init: Following information regarding Input_Opt% (for all doms)
 After domain           1
 HPC:  T
 LPRT:  F
 DoConv:  T
 DoDryDep:  T
 DoEmis:  T
 DoChem:  T
 DoTurb:  T
 DoWetDep:  T

 tropopause_init: DONE intialized domain            1

 mediation_integrate: med_read_wrf_chem_emissions: Open file wrfchemi_00z_d01
 HOURLY EMISSIONS UPDATE TIME        0.0       0.0
mediation_integrate: med_read_wrf_chem_emissions: Read emissions for time 2018-01-01_00:00:00
open_aux_u : error opening wrffirechemi_d01_2018-01-01_00:00:00 for reading. 100
open_aux_u : error opening wrfchemi_gocart_bg_d01 for reading. 100
d01 2018-01-01_00:00:00 Input data processed for aux input   8 for domain   1
open_aux_u : error opening wrfchemv_d01 for reading. 100
 Tile Strategy is not specified. Assuming 1D-Y
WRF TILE   1 IS    876 IE    890 JS    155 JE    163
WRF NUMBER OF TILES =   1
 max optd  3.3547268E+12
 max taucldi  0.0000000E+00
 max taucldw  0.5100734    
 =================================================
 W R F - G C   T I M E R S
    Domain           1 (Units: s)
 =================================================
  => Coupler Component                       0.033
   -- Physics & Parameterization             0.001
   -- Diagnostics Out                        0.000
  => GEOS-Chem Column                        0.000
  ===> Total Chemistry                       0.033
  => WRF                                     0.000
  ===> Total WRF-GC                          0.033
 max optd  3.3547268E+12
 max taucldi  1.0000007E-14
 max taucldw   2.483053    
 %%%%%%%%% GIGC IN-PET GRID SWITCHING HACKS %%%%%%%%%
     (Not very) Proudly brought to you by hplin      
 Some debug information:
 ID:           1
 IM, JM, LM:          15           9          49  will be set as PAR
 Allocs: CMN T GC T
 RC at entry-point:           0
 %%%%%%%%%%%%%%%%%%%%%%%%%%%%%%%%%%%%%%%%%%%%%%%%%%%%
 No need to switch HcoState for ID           1
 Debug HcoState nSpc, NX, NY, NZ         163          15           9          49
 Exit RC:            0
 %%%%%%%%%    FINISHED GIGC_Switch_Dims    %%%%%%%%%
 GIGC_Chunk_Run: Running for in-PET grid #           1
 GIGC_Chunk_Run: Received new grid IM, JM, LM =          15           9
          49
HEMCO: Opening /fsx/HEMCO/BIOFUEL/v2014-07/biofuel.geos.4x5.nc
HEMCO: Opening /fsx/HEMCO/BROMINE/v2015-02/Bromocarb_Liang2010.nc
HEMCO: Opening /fsx/HEMCO/ACET/v2014-07/ACET_seawater.generic.1x1.nc
HEMCO: Opening /fsx/HEMCO/SOILNOX/v2014-07/DepReservoirDefault.nc
HEMCO: Opening /fsx/HEMCO/SOILNOX/v2014-07/soilNOx.landtype.generic.025x025.1L.nc
HEMCO: Opening /fsx/HEMCO/SOILNOX/v2014-07/soilNOx.climate.generic.05x05.nc
HEMCO: Opening /fsx/HEMCO/DUST_DEAD/v2014-07/dst_tibds.geos.4x5.nc
HEMCO: Opening /fsx/HEMCO/DUST_DEAD/v2014-07/GOCART_src_fn.geos.4x5.nc
HEMCO: Opening /fsx/HEMCO/MEGAN/v2018-05/MEGAN2.1_EF.geos.025x03125.nc
HEMCO: Opening /fsx/HEMCO/MEGAN/v2017-07/CLM4_PFT.geos.025x03125.nc
HEMCO: Opening /fsx/HEMCO/TIMEZONES/v2015-02/timezones_voronoi_1x1.nc
HEMCO: Opening /fsx/HEMCO/STRAT/v2015-01/Bry/GEOSCCM_Bry.200701.day.nc
HEMCO: Opening /fsx/HEMCO/STRAT/v2015-01/Bry/GEOSCCM_Bry.200701.night.nc
HEMCO: Opening /fsx/HEMCO/OMOC/v2018-01/OMOC.DJF.01x01.nc
HEMCO: Opening /fsx/HEMCO/OMOC/v2018-01/OMOC.MAM.01x01.nc
HEMCO: Opening /fsx/HEMCO/OMOC/v2018-01/OMOC.JJA.01x01.nc
HEMCO: Opening /fsx/HEMCO/OMOC/v2018-01/OMOC.SON.01x01.nc
HEMCO: Opening /fsx/HEMCO/AnnualScalar/v2014-07/AnnualScalar.geos.1x1.nc
HEMCO: Opening /fsx/HEMCO/EDGARv42/v2015-02/NO/EDGAR_hourly_NOxScal.nc
HEMCO: Opening /fsx/HEMCO/MASKS/v2018-09/EMEP_mask.geos.1x1.20151222.nc
HEMCO: Opening /fsx/HEMCO/MASKS/v2018-09/Canada_mask.geos.1x1.nc
HEMCO: Opening /fsx/HEMCO/MASKS/v2018-09/SE_Asia_mask.generic.1x1.nc
HEMCO: Opening /fsx/HEMCO/MASKS/v2018-09/MIX_Asia_mask.generic.025x025.nc
HEMCO: Opening /fsx/HEMCO/MASKS/v2018-09/CONUS_Mask.01x01.nc
HEMCO: Opening /fsx/HEMCO/MASKS/v2018-09/AF_LANDMASK.geos.05x0666.global.nc
HEMCO: Opening /fsx/HEMCO/MASKS/v2018-09/China_mask.generic.1x1.nc
HEMCO: Opening /fsx/HEMCO/MASKS/v2018-09/India_mask.generic.1x1.nc
HEMCO: Opening /fsx/HEMCO/AnnualScalar/v2014-07/AnnualScalar.geos.1x1.nc
HEMCO: Opening /fsx/HEMCO/NH3/v2014-07/NH3_geos.4x5.nc
HEMCO: Opening /fsx/HEMCO/NH3/v2018-04/NH3_Arctic_seabirds.nc
HEMCO: Opening /fsx/HEMCO/CEDS/v2018-08/2014/NO-em-anthro_CMIP_CEDS_2014.nc
HEMCO: Opening /fsx/HEMCO/CEDS/v2018-08/2014/CO-em-anthro_CMIP_CEDS_2014.nc
HEMCO: Opening /fsx/HEMCO/CEDS/v2018-08/2014/SO2-em-anthro_CMIP_CEDS_2014.nc
HEMCO: Opening /fsx/HEMCO/CEDS/v2018-08/2014/NH3-em-anthro_CMIP_CEDS_2014.nc
HEMCO: Opening /fsx/HEMCO/CEDS/v2018-08/2014/BC-em-anthro_CMIP_CEDS_2014.nc
HEMCO: Opening /fsx/HEMCO/CEDS/v2018-08/2014/OC-em-anthro_CMIP_CEDS_2014.nc
HEMCO: Opening /fsx/HEMCO/CEDS/v2018-08/2014/EOH-em-anthro_CMIP_CEDS_2014.nc
HEMCO: Opening /fsx/HEMCO/CEDS/v2018-08/2014/C2H6-em-anthro_CMIP_CEDS_2014.nc
HEMCO: Opening /fsx/HEMCO/CEDS/v2018-08/2014/C3H8-em-anthro_CMIP_CEDS_2014.nc
HEMCO: Opening /fsx/HEMCO/CEDS/v2018-08/2014/ALK4_butanes-em-anthro_CMIP_CEDS_2014.nc
HEMCO: Opening /fsx/HEMCO/CEDS/v2018-08/2014/ALK4_pentanes-em-anthro_CMIP_CEDS_2014.nc
HEMCO: Opening /fsx/HEMCO/CEDS/v2018-08/2014/ALK4_hexanes-em-anthro_CMIP_CEDS_2014.nc
HEMCO: Opening /fsx/HEMCO/CEDS/v2018-08/2014/PRPE-em-anthro_CMIP_CEDS_2014.nc
HEMCO: Opening /fsx/HEMCO/CEDS/v2018-08/2014/BENZ-em-anthro_CMIP_CEDS_2014.nc
HEMCO: Opening /fsx/HEMCO/CEDS/v2018-08/2014/TOLU-em-anthro_CMIP_CEDS_2014.nc
HEMCO: Opening /fsx/HEMCO/CEDS/v2018-08/2014/XYLE-em-anthro_CMIP_CEDS_2014.nc
HEMCO: Opening /fsx/HEMCO/CEDS/v2018-08/2014/CH2O-em-anthro_CMIP_CEDS_2014.nc
HEMCO: Opening /fsx/HEMCO/CEDS/v2018-08/2014/ALD2-em-anthro_CMIP_CEDS_2014.nc
HEMCO: Opening /fsx/HEMCO/CEDS/v2018-08/2014/MEK-em-anthro_CMIP_CEDS_2014.nc
HEMCO: Opening /fsx/HEMCO/CEDS/v2018-08/2014/HCOOH-em-anthro_CMIP_CEDS_2014.nc
HEMCO: Opening /fsx/HEMCO/C2H6_2010/v2017-05/C2H6_global_anth_biof.201001.nc
HEMCO: Opening /fsx/HEMCO/NEI2011/v2017-02-MM/01/NEI11_0.1x0.1_201101_monmean.nc
HEMCO: Opening /fsx/HEMCO/NEI2011/v2017-02-MM/01/NEI11_0.1x0.1_201101_monmean_egu.nc
HEMCO: Opening /fsx/HEMCO/NEI2011/v2017-02-MM/01/NEI11_0.1x0.1_201101_monmean_egupk.nc
HEMCO: Opening /fsx/HEMCO/NEI2011/v2017-02-MM/01/NEI11_0.1x0.1_201101_monmean_oilgas.nc
HEMCO: Opening /fsx/HEMCO/NEI2011/v2017-02-MM/01/NEI11_0.1x0.1_201101_monmean_othpt.nc
HEMCO: Opening /fsx/HEMCO/NEI2011/v2017-02-MM/01/NEI11_0.1x0.1_201101_monmean_ptnonipm.nc
HEMCO: Opening /fsx/HEMCO/IODINE/v2017-09/CH3I_monthly_emissions_Ordonez_2012_COARDS.nc
HEMCO: Opening /fsx/HEMCO/IODINE/v2017-09/CH2I2_monthly_emissions_Ordonez_2012_COARDS.nc
HEMCO: Opening /fsx/HEMCO/IODINE/v2017-09/CH2ICl_monthly_emissions_Ordonez_2012_COARDS.nc
HEMCO: Opening /fsx/HEMCO/IODINE/v2017-09/CH2IBr_monthly_emissions_Ordonez_2012_COARDS.nc
HEMCO: Opening /fsx/HEMCO/CEDS/v2018-08/2014/CO-em-anthro_CMIP_CEDS_2014.nc
HEMCO: Opening /fsx/HEMCO/CEDS/v2018-08/2014/SO2-em-anthro_CMIP_CEDS_2014.nc
HEMCO: Opening /fsx/HEMCO/CEDS/v2018-08/2014/NH3-em-anthro_CMIP_CEDS_2014.nc
HEMCO: Opening /fsx/HEMCO/CEDS/v2018-08/2014/BC-em-anthro_CMIP_CEDS_2014.nc
HEMCO: Opening /fsx/HEMCO/CEDS/v2018-08/2014/OC-em-anthro_CMIP_CEDS_2014.nc
HEMCO: Opening /fsx/HEMCO/CEDS/v2018-08/2014/EOH-em-anthro_CMIP_CEDS_2014.nc
HEMCO: Opening /fsx/HEMCO/CEDS/v2018-08/2014/C2H6-em-anthro_CMIP_CEDS_2014.nc
HEMCO: Opening /fsx/HEMCO/CEDS/v2018-08/2014/C3H8-em-anthro_CMIP_CEDS_2014.nc
HEMCO: Opening /fsx/HEMCO/CEDS/v2018-08/2014/ALK4_butanes-em-anthro_CMIP_CEDS_2014.nc
HEMCO: Opening /fsx/HEMCO/CEDS/v2018-08/2014/ALK4_pentanes-em-anthro_CMIP_CEDS_2014.nc
HEMCO: Opening /fsx/HEMCO/CEDS/v2018-08/2014/ALK4_hexanes-em-anthro_CMIP_CEDS_2014.nc
HEMCO: Opening /fsx/HEMCO/CEDS/v2018-08/2014/PRPE-em-anthro_CMIP_CEDS_2014.nc
HEMCO: Opening /fsx/HEMCO/CEDS/v2018-08/2014/BENZ-em-anthro_CMIP_CEDS_2014.nc
HEMCO: Opening /fsx/HEMCO/CEDS/v2018-08/2014/TOLU-em-anthro_CMIP_CEDS_2014.nc
HEMCO: Opening /fsx/HEMCO/CEDS/v2018-08/2014/XYLE-em-anthro_CMIP_CEDS_2014.nc
HEMCO: Opening /fsx/HEMCO/CEDS/v2018-08/2014/CH2O-em-anthro_CMIP_CEDS_2014.nc
HEMCO: Opening /fsx/HEMCO/CEDS/v2018-08/2014/ALD2-em-anthro_CMIP_CEDS_2014.nc
HEMCO: Opening /fsx/HEMCO/CEDS/v2018-08/2014/MEK-em-anthro_CMIP_CEDS_2014.nc
HEMCO: Opening /fsx/HEMCO/CEDS/v2018-08/2014/HCOOH-em-anthro_CMIP_CEDS_2014.nc
HEMCO: Opening /fsx/HEMCO/CEDS/v2018-08/2014/NO-em-anthro_CMIP_CEDS_2014.nc
HEMCO: Opening /fsx/HEMCO/AEIC/v2015-01/AEIC.47L.gen.1x1.nc
HEMCO: Opening /fsx/HEMCO/ALD2/v2017-03/resp.geos.2x25.nc
HEMCO: Opening /fsx/HEMCO/DMS/v2015-07/DMS_lana.geos.1x1.nc
HEMCO: Opening /fsx/HEMCO/ALD2/v2017-03/ALD2_seawater.geos.2x25.nc
HEMCO: Opening /fsx/HEMCO/DUST_DEAD/v2014-07/dst_tvbds.geos.4x5.nc
HEMCO: Opening /fsx/HEMCO/DUST_DEAD/v2018-04/PM25FINE_ECLIPSE_2015.geos.2x25.nc
HEMCO: Opening /fsx/HEMCO/SOA/v2014-07/NVOC.geos.1x1.nc
HEMCO: Opening /fsx/HEMCO/GFED4/v2015-10/2016/GFED4_gen.025x025.201601.nc
HEMCO: Opening /fsx/HEMCO/UVALBEDO/v2015-03/uvalbedo.geos.2x25.nc
HEMCO: Opening /fsx/HEMCO/GMI/v2015-02/gmi.clim.ACET.geos5.2x25.nc
HEMCO: Opening /fsx/HEMCO/GMI/v2015-02/gmi.clim.ACTA.geos5.2x25.nc
HEMCO: Opening /fsx/HEMCO/GMI/v2015-02/gmi.clim.ALD2.geos5.2x25.nc
HEMCO: Opening /fsx/HEMCO/GMI/v2015-02/gmi.clim.ALK4.geos5.2x25.nc
HEMCO: Opening /fsx/HEMCO/GMI/v2015-02/gmi.clim.C2H6.geos5.2x25.nc
HEMCO: Opening /fsx/HEMCO/GMI/v2015-02/gmi.clim.C3H8.geos5.2x25.nc
HEMCO: Opening /fsx/HEMCO/GMI/v2015-02/gmi.clim.CCl4.geos5.2x25.nc
HEMCO: Opening /fsx/HEMCO/GMI/v2015-02/gmi.clim.CF2Cl2.geos5.2x25.nc
HEMCO: Opening /fsx/HEMCO/GMI/v2015-02/gmi.clim.CF2ClBr.geos5.2x25.nc
HEMCO: Opening /fsx/HEMCO/GMI/v2015-02/gmi.clim.CFC113.geos5.2x25.nc
HEMCO: Opening /fsx/HEMCO/GMI/v2015-02/gmi.clim.CFC114.geos5.2x25.nc
HEMCO: Opening /fsx/HEMCO/GMI/v2015-02/gmi.clim.CFC115.geos5.2x25.nc
HEMCO: Opening /fsx/HEMCO/GMI/v2015-02/gmi.clim.CFCl3.geos5.2x25.nc
HEMCO: Opening /fsx/HEMCO/GMI/v2015-02/gmi.clim.CH2O.geos5.2x25.nc
HEMCO: Opening /fsx/HEMCO/GMI/v2015-02/gmi.clim.CH3CCl3.geos5.2x25.nc
HEMCO: Opening /fsx/HEMCO/GMI/v2015-02/gmi.clim.CH3Cl.geos5.2x25.nc
HEMCO: Opening /fsx/HEMCO/GMI/v2015-02/gmi.clim.CH4.geos5.2x25.nc
HEMCO: Opening /fsx/HEMCO/GMI/v2015-02/gmi.clim.CO.geos5.2x25.nc
HEMCO: Opening /fsx/HEMCO/GMI/v2015-02/gmi.clim.Cl.geos5.2x25.nc
HEMCO: Opening /fsx/HEMCO/GMI/v2015-02/gmi.clim.Cl2.geos5.2x25.nc
HEMCO: Opening /fsx/HEMCO/GMI/v2015-02/gmi.clim.Cl2O2.geos5.2x25.nc
HEMCO: Opening /fsx/HEMCO/GMI/v2015-02/gmi.clim.ClO.geos5.2x25.nc
HEMCO: Opening /fsx/HEMCO/GMI/v2015-02/gmi.clim.EOH.geos5.2x25.nc
HEMCO: Opening /fsx/HEMCO/GMI/v2015-02/gmi.clim.GLYC.geos5.2x25.nc
HEMCO: Opening /fsx/HEMCO/GMI/v2015-02/gmi.clim.GLYX.geos5.2x25.nc
HEMCO: Opening /fsx/HEMCO/GMI/v2015-02/gmi.clim.H2402.geos5.2x25.nc
HEMCO: Opening /fsx/HEMCO/GMI/v2015-02/gmi.clim.H2O.geos5.2x25.nc
HEMCO: Opening /fsx/HEMCO/GMI/v2015-02/gmi.clim.H2O2.geos5.2x25.nc
HEMCO: Opening /fsx/HEMCO/GMI/v2015-02/gmi.clim.HAC.geos5.2x25.nc
HEMCO: Opening /fsx/HEMCO/GMI/v2015-02/gmi.clim.HCFC141b.geos5.2x25.nc
HEMCO: Opening /fsx/HEMCO/GMI/v2015-02/gmi.clim.HCFC142b.geos5.2x25.nc
HEMCO: Opening /fsx/HEMCO/GMI/v2015-02/gmi.clim.HCFC22.geos5.2x25.nc
HEMCO: Opening /fsx/HEMCO/GMI/v2015-02/gmi.clim.HCOOH.geos5.2x25.20170108.nc
HEMCO: Opening /fsx/HEMCO/GMI/v2015-02/gmi.clim.HCl.geos5.2x25.nc
HEMCO: Opening /fsx/HEMCO/GMI/v2015-02/gmi.clim.HNO2.geos5.2x25.nc
HEMCO: Opening /fsx/HEMCO/GMI/v2015-02/gmi.clim.HNO3.geos5.2x25.nc
HEMCO: Opening /fsx/HEMCO/GMI/v2015-02/gmi.clim.HNO4.geos5.2x25.nc
HEMCO: Opening /fsx/HEMCO/GMI/v2015-02/gmi.clim.HOCl.geos5.2x25.nc
HEMCO: Opening /fsx/HEMCO/GMI/v2015-02/gmi.clim.ISN1.geos5.2x25.nc
HEMCO: Opening /fsx/HEMCO/GMI/v2015-02/gmi.clim.ISOP.geos5.2x25.nc
HEMCO: Opening /fsx/HEMCO/GMI/v2015-02/gmi.clim.MACR.geos5.2x25.nc
HEMCO: Opening /fsx/HEMCO/GMI/v2015-02/gmi.clim.MAP.geos5.2x25.nc
HEMCO: Opening /fsx/HEMCO/GMI/v2015-02/gmi.clim.MEK.geos5.2x25.nc
HEMCO: Opening /fsx/HEMCO/GMI/v2015-02/gmi.clim.MGLY.geos5.2x25.nc
HEMCO: Opening /fsx/HEMCO/GMI/v2015-02/gmi.clim.MP.geos5.2x25.nc
HEMCO: Opening /fsx/HEMCO/GMI/v2015-02/gmi.clim.MVK.geos5.2x25.nc
HEMCO: Opening /fsx/HEMCO/GMI/v2015-02/gmi.clim.N2O.geos5.2x25.nc
HEMCO: Opening /fsx/HEMCO/GMI/v2015-02/gmi.clim.N2O5.geos5.2x25.nc
HEMCO: Opening /fsx/HEMCO/GMI/v2015-02/gmi.clim.NO.geos5.2x25.nc
HEMCO: Opening /fsx/HEMCO/GMI/v2015-02/gmi.clim.NO2.geos5.2x25.nc
HEMCO: Opening /fsx/HEMCO/GMI/v2015-02/gmi.clim.NO3.geos5.2x25.nc
HEMCO: Opening /fsx/HEMCO/GMI/v2015-02/gmi.clim.O3.geos5.2x25.nc
HEMCO: Opening /fsx/HEMCO/GMI/v2015-02/gmi.clim.OClO.geos5.2x25.nc
HEMCO: Opening /fsx/HEMCO/GMI/v2015-02/gmi.clim.PAN.geos5.2x25.nc
HEMCO: Opening /fsx/HEMCO/GMI/v2015-02/gmi.clim.NPMN.geos5.2x25.nc
HEMCO: Opening /fsx/HEMCO/GMI/v2015-02/gmi.clim.IPMN.geos5.2x25.nc
HEMCO: Opening /fsx/HEMCO/GMI/v2015-02/gmi.clim.PPN.geos5.2x25.nc
HEMCO: Opening /fsx/HEMCO/GMI/v2015-02/gmi.clim.PRPE.geos5.2x25.nc
HEMCO: Opening /fsx/HEMCO/GMI/v2015-02/gmi.clim.R4N2.geos5.2x25.nc
HEMCO: Opening /fsx/HEMCO/GMI/v2015-02/gmi.clim.RCHO.geos5.2x25.nc
HEMCO: Opening /fsx/HEMCO/GMI/v2015-02/gmi.clim.RIPA.geos5.2x25.nc
HEMCO: Opening /fsx/HEMCO/GMI/v2015-02/gmi.clim.RIPB.geos5.2x25.nc
HEMCO: Opening /fsx/HEMCO/GMI/v2015-02/gmi.clim.RIPD.geos5.2x25.nc
HEMCO: Opening /fsx/HEMCO/GMI/v2015-02/gmi.clim.OH.geos5.2x25.nc
HEMCO: Opening /fsx/HEMCO/NOAA_GMD/v2018-01/monthly.gridded.surface.methane.1979-2020.1x1.nc
HEMCO: Opening /fsx/HEMCO/GEIA/v2014-07/GEIA_monthscal.generic.1x1.nc
HEMCO: Opening /fsx/HEMCO/EMEP/v2015-03/EMEP.Seasonal.geos.1x1.nc
HEMCO: Opening /fsx/HEMCO/BROMINE/v2015-02/BromoCarb_Season.nc
HEMCO: Opening /fsx/HEMCO/EDGARv43/v2016-11/EDGAR_v43.Seasonal.1x1.nc
HEMCO: Opening /fsx/HEMCO/NEI2005/v2014-09/scaling/NEI99.dow.geos.1x1.nc
HEMCO: Opening /fsx/HEMCO/VOLCANO/v2015-02/2009/volc_so2_gen.1x1.47L.200901.nc
HEMCO: Opening /fsx/HEMCO/SOILNOX/v2014-07/soilNOx.fert_res.generic.05x05.nc
 vdinti: pbl height will be limited to bottom           25  model levels. top is
     431.250100000000       hpa
 =================================================
 W R F - G C   T I M E R S
    Domain           1 (Units: s)
 =================================================
  => Coupler Component                       0.059
   -- Physics & Parameterization             0.010
   -- Diagnostics Out                        0.000
  => GEOS-Chem Column                      115.679
  ===> Total Chemistry                     115.738
  => WRF                                    17.415
  ===> Total WRF-GC                        133.153
 max optd  1.6160325E+32
 max taucldi  2.2201928E-11
 max taucldw   4.271986    
 Switching is not necessary as we are already
 in the right domain!
 GIGC_Chunk_Run: Running for in-PET grid #           1
 GIGC_Chunk_Run: Received new grid IM, JM, LM =          15           9
          49
 =================================================
 W R F - G C   T I M E R S
    Domain           1 (Units: s)
 =================================================
  => Coupler Component                       0.098
   -- Physics & Parameterization             0.020
   -- Diagnostics Out                        0.000
  => GEOS-Chem Column                      116.807
  ===> Total Chemistry                     116.905
  => WRF                                    75.335
  ===> Total WRF-GC                        192.240
 max optd  1.6160325E+32
 max taucldi  4.2911980E-11
 max taucldw   5.867387    
 Switching is not necessary as we are already
 in the right domain!
 GIGC_Chunk_Run: Running for in-PET grid #           1
 GIGC_Chunk_Run: Received new grid IM, JM, LM =          15           9
          49
 =================================================
 W R F - G C   T I M E R S
    Domain           1 (Units: s)
 =================================================
  => Coupler Component                       0.137
   -- Physics & Parameterization             0.031
   -- Diagnostics Out                        0.000
  => GEOS-Chem Column                      117.883
  ===> Total Chemistry                     118.020
  => WRF                                    96.053
  ===> Total WRF-GC                        214.073
 max optd  1.6160325E+32
 max taucldi  6.0916959E-11
 max taucldw   7.484901    
 Switching is not necessary as we are already
 in the right domain!
 GIGC_Chunk_Run: Running for in-PET grid #           1
 GIGC_Chunk_Run: Received new grid IM, JM, LM =          15           9
          49
 =================================================
 W R F - G C   T I M E R S
    Domain           1 (Units: s)
 =================================================
  => Coupler Component                       0.174
   -- Physics & Parameterization             0.041
   -- Diagnostics Out                        0.000
  => GEOS-Chem Column                      118.950
  ===> Total Chemistry                     119.124
  => WRF                                   115.055
  ===> Total WRF-GC                        234.180
 max optd  1.6160325E+32
 max taucldi  1.1058637E-10
 max taucldw   8.948065    
 Switching is not necessary as we are already
 in the right domain!
 GIGC_Chunk_Run: Running for in-PET grid #           1
 GIGC_Chunk_Run: Received new grid IM, JM, LM =          15           9
          49
 =================================================
 W R F - G C   T I M E R S
    Domain           1 (Units: s)
 =================================================
  => Coupler Component                       0.212
   -- Physics & Parameterization             0.050
   -- Diagnostics Out                        0.000
  => GEOS-Chem Column                      119.997
  ===> Total Chemistry                     120.209
  => WRF                                   133.613
  ===> Total WRF-GC                        253.822
 max optd  1.6160325E+32
 max taucldi  1.7777016E-10
 max taucldw   10.18770    
 Switching is not necessary as we are already
 in the right domain!
 GIGC_Chunk_Run: Running for in-PET grid #           1
 GIGC_Chunk_Run: Received new grid IM, JM, LM =          15           9
          49
 =================================================
 W R F - G C   T I M E R S
    Domain           1 (Units: s)
 =================================================
  => Coupler Component                       0.248
   -- Physics & Parameterization             0.060
   -- Diagnostics Out                        0.000
  => GEOS-Chem Column                      121.055
  ===> Total Chemistry                     121.303
  => WRF                                   152.068
  ===> Total WRF-GC                        273.371
 max optd  1.6160325E+32
 max taucldi  2.6620725E-10
 max taucldw   11.35680    
 Switching is not necessary as we are already
 in the right domain!
 GIGC_Chunk_Run: Running for in-PET grid #           1
 GIGC_Chunk_Run: Received new grid IM, JM, LM =          15           9
          49
 =================================================
 W R F - G C   T I M E R S
    Domain           1 (Units: s)
 =================================================
  => Coupler Component                       0.283
   -- Physics & Parameterization             0.069
   -- Diagnostics Out                        0.000
  => GEOS-Chem Column                      122.115
  ===> Total Chemistry                     122.398
  => WRF                                   170.505
  ===> Total WRF-GC                        292.902
 max optd  1.6160325E+32
 max taucldi  3.7072240E-10
 max taucldw   13.06178    
 Switching is not necessary as we are already
 in the right domain!
 GIGC_Chunk_Run: Running for in-PET grid #           1
 GIGC_Chunk_Run: Received new grid IM, JM, LM =          15           9
          49
 =================================================
 W R F - G C   T I M E R S
    Domain           1 (Units: s)
 =================================================
  => Coupler Component                       0.316
   -- Physics & Parameterization             0.079
   -- Diagnostics Out                        0.000
  => GEOS-Chem Column                      123.183
  ===> Total Chemistry                     123.499
  => WRF                                   188.879
  ===> Total WRF-GC                        312.379
 max optd  1.6160325E+32
 max taucldi  4.9098042E-10
 max taucldw   14.31334    
 Switching is not necessary as we are already
 in the right domain!
 GIGC_Chunk_Run: Running for in-PET grid #           1
 GIGC_Chunk_Run: Received new grid IM, JM, LM =          15           9
          49
 =================================================
 W R F - G C   T I M E R S
    Domain           1 (Units: s)
 =================================================
  => Coupler Component                       0.353
   -- Physics & Parameterization             0.088
   -- Diagnostics Out                        0.000
  => GEOS-Chem Column                      124.231
  ===> Total Chemistry                     124.584
  => WRF                                   207.246
  ===> Total WRF-GC                        331.829
 max optd  1.6160325E+32
 max taucldi  6.2738192E-10
 max taucldw   15.87370    
 Switching is not necessary as we are already
 in the right domain!
 GIGC_Chunk_Run: Running for in-PET grid #           1
 GIGC_Chunk_Run: Received new grid IM, JM, LM =          15           9
          49
 =================================================
 W R F - G C   T I M E R S
    Domain           1 (Units: s)
 =================================================
  => Coupler Component                       0.387
   -- Physics & Parameterization             0.098
   -- Diagnostics Out                        0.000
  => GEOS-Chem Column                      125.296
  ===> Total Chemistry                     125.683
  => WRF                                   225.686
  ===> Total WRF-GC                        351.369
 max optd  1.6160325E+32
 max taucldi  7.8068019E-10
 max taucldw   16.84852    
 Switching is not necessary as we are already
 in the right domain!
 GIGC_Chunk_Run: Running for in-PET grid #           1
 GIGC_Chunk_Run: Received new grid IM, JM, LM =          15           9
          49
 =================================================
 W R F - G C   T I M E R S
    Domain           1 (Units: s)
 =================================================
  => Coupler Component                       0.420
   -- Physics & Parameterization             0.107
   -- Diagnostics Out                        0.000
  => GEOS-Chem Column                      126.361
  ===> Total Chemistry                     126.781
  => WRF                                   244.032
  ===> Total WRF-GC                        370.813
 max optd  1.6160325E+32
 max taucldi  9.5022534E-10
 max taucldw   20.55401    
 Switching is not necessary as we are already
 in the right domain!
 GIGC_Chunk_Run: Running for in-PET grid #           1
 GIGC_Chunk_Run: Received new grid IM, JM, LM =          15           9
          49
 =================================================
 W R F - G C   T I M E R S
    Domain           1 (Units: s)
 =================================================
  => Coupler Component                       0.452
   -- Physics & Parameterization             0.117
   -- Diagnostics Out                        0.000
  => GEOS-Chem Column                      127.433
  ===> Total Chemistry                     127.885
  => WRF                                   262.265
  ===> Total WRF-GC                        390.150
 HOURLY EMISSIONS UPDATE TIME     3600.0       0.0
mediation_integrate: med_read_wrf_chem_emissions: Read emissions for time 2018-01-01_01:00:00
 max optd  1.6160325E+32
 max taucldi  1.1267253E-09
 max taucldw   24.74990    
 Switching is not necessary as we are already
 in the right domain!
 GIGC_Chunk_Run: Running for in-PET grid #           1
 GIGC_Chunk_Run: Received new grid IM, JM, LM =          15           9
          49
 =================================================
 W R F - G C   T I M E R S
    Domain           1 (Units: s)
 =================================================
  => Coupler Component                       0.485
   -- Physics & Parameterization             0.126
   -- Diagnostics Out                        0.000
  => GEOS-Chem Column                      128.485
  ===> Total Chemistry                     128.969
  => WRF                                   280.571
  ===> Total WRF-GC                        409.540
 max optd  1.6160325E+32
 max taucldi  1.3103467E-09
 max taucldw   28.29121    
 Switching is not necessary as we are already
 in the right domain!
 GIGC_Chunk_Run: Running for in-PET grid #           1
 GIGC_Chunk_Run: Received new grid IM, JM, LM =          15           9
          49
 =================================================
 W R F - G C   T I M E R S
    Domain           1 (Units: s)
 =================================================
  => Coupler Component                       0.517
   -- Physics & Parameterization             0.136
   -- Diagnostics Out                        0.000
  => GEOS-Chem Column                      129.557
  ===> Total Chemistry                     130.074
  => WRF                                   298.887
  ===> Total WRF-GC                        428.961
 max optd  1.6160325E+32
 max taucldi  1.5108804E-09
 max taucldw   31.77614    
 Switching is not necessary as we are already
 in the right domain!
 GIGC_Chunk_Run: Running for in-PET grid #           1
 GIGC_Chunk_Run: Received new grid IM, JM, LM =          15           9
          49
 =================================================
 W R F - G C   T I M E R S
    Domain           1 (Units: s)
 =================================================
  => Coupler Component                       0.549
   -- Physics & Parameterization             0.146
   -- Diagnostics Out                        0.000
  => GEOS-Chem Column                      130.593
  ===> Total Chemistry                     131.142
  => WRF                                   317.084
  ===> Total WRF-GC                        448.226
 max optd  1.6160325E+32
 max taucldi  1.7254692E-09
 max taucldw   36.12665    
 Switching is not necessary as we are already
 in the right domain!
 GIGC_Chunk_Run: Running for in-PET grid #           1
 GIGC_Chunk_Run: Received new grid IM, JM, LM =          15           9
          49
 =================================================
 W R F - G C   T I M E R S
    Domain           1 (Units: s)
 =================================================
  => Coupler Component                       0.582
   -- Physics & Parameterization             0.155
   -- Diagnostics Out                        0.000
  => GEOS-Chem Column                      131.650
  ===> Total Chemistry                     132.232
  => WRF                                   335.362
  ===> Total WRF-GC                        467.594
 max optd  1.6160325E+32
 max taucldi  1.9439730E-09
 max taucldw   39.22325    
 Switching is not necessary as we are already
 in the right domain!
 GIGC_Chunk_Run: Running for in-PET grid #           1
 GIGC_Chunk_Run: Received new grid IM, JM, LM =          15           9
          49
 =================================================
 W R F - G C   T I M E R S
    Domain           1 (Units: s)
 =================================================
  => Coupler Component                       0.616
   -- Physics & Parameterization             0.164
   -- Diagnostics Out                        0.000
  => GEOS-Chem Column                      132.701
  ===> Total Chemistry                     133.317
  => WRF                                   353.588
  ===> Total WRF-GC                        486.904
 max optd  1.6160325E+32
 max taucldi  2.1669111E-09
 max taucldw   41.61265    
 Switching is not necessary as we are already
 in the right domain!
 GIGC_Chunk_Run: Running for in-PET grid #           1
 GIGC_Chunk_Run: Received new grid IM, JM, LM =          15           9
          49
 =================================================
 W R F - G C   T I M E R S
    Domain           1 (Units: s)
 =================================================
  => Coupler Component                       0.648
   -- Physics & Parameterization             0.174
   -- Diagnostics Out                        0.000
  => GEOS-Chem Column                      133.771
  ===> Total Chemistry                     134.420
  => WRF                                   371.781
  ===> Total WRF-GC                        506.201
 max optd  1.6160325E+32
 max taucldi  2.3905697E-09
 max taucldw   43.26305    
 Switching is not necessary as we are already
 in the right domain!
 GIGC_Chunk_Run: Running for in-PET grid #           1
 GIGC_Chunk_Run: Received new grid IM, JM, LM =          15           9
          49
 =================================================
 W R F - G C   T I M E R S
    Domain           1 (Units: s)
 =================================================
  => Coupler Component                       0.682
   -- Physics & Parameterization             0.184
   -- Diagnostics Out                        0.000
  => GEOS-Chem Column                      134.840
  ===> Total Chemistry                     135.522
  => WRF                                   390.027
  ===> Total WRF-GC                        525.549
 max optd  1.6160325E+32
 max taucldi  2.6202231E-09
 max taucldw   44.47840    
 Switching is not necessary as we are already
 in the right domain!
 GIGC_Chunk_Run: Running for in-PET grid #           1
 GIGC_Chunk_Run: Received new grid IM, JM, LM =          15           9
          49
 =================================================
 W R F - G C   T I M E R S
    Domain           1 (Units: s)
 =================================================
  => Coupler Component                       0.715
   -- Physics & Parameterization             0.193
   -- Diagnostics Out                        0.000
  => GEOS-Chem Column                      135.899
  ===> Total Chemistry                     136.614
  => WRF                                   408.372
  ===> Total WRF-GC                        544.986
 max optd  1.6160325E+32
 max taucldi  2.8563787E-09
 max taucldw   45.29351    
 Switching is not necessary as we are already
 in the right domain!
 GIGC_Chunk_Run: Running for in-PET grid #           1
 GIGC_Chunk_Run: Received new grid IM, JM, LM =          15           9
          49
 =================================================
 W R F - G C   T I M E R S
    Domain           1 (Units: s)
 =================================================
  => Coupler Component                       0.749
   -- Physics & Parameterization             0.203
   -- Diagnostics Out                        0.000
  => GEOS-Chem Column                      136.968
  ===> Total Chemistry                     137.717
  => WRF                                   426.470
  ===> Total WRF-GC                        564.187
 max optd  1.6160325E+32
 max taucldi  3.1064165E-09
 max taucldw   50.11822    
 Switching is not necessary as we are already
 in the right domain!
 GIGC_Chunk_Run: Running for in-PET grid #           1
 GIGC_Chunk_Run: Received new grid IM, JM, LM =          15           9
          49
 =================================================
 W R F - G C   T I M E R S
    Domain           1 (Units: s)
 =================================================
  => Coupler Component                       0.784
   -- Physics & Parameterization             0.212
   -- Diagnostics Out                        0.000
  => GEOS-Chem Column                      138.046
  ===> Total Chemistry                     138.829
  => WRF                                   444.634
  ===> Total WRF-GC                        583.463
 max optd  1.6160325E+32
 max taucldi  3.3686280E-09
 max taucldw   51.80679    
 Switching is not necessary as we are already
 in the right domain!
 GIGC_Chunk_Run: Running for in-PET grid #           1
 GIGC_Chunk_Run: Received new grid IM, JM, LM =          15           9
          49
 =================================================
 W R F - G C   T I M E R S
    Domain           1 (Units: s)
 =================================================
  => Coupler Component                       0.818
   -- Physics & Parameterization             0.222
   -- Diagnostics Out                        0.000
  => GEOS-Chem Column                      139.094
  ===> Total Chemistry                     139.912
  => WRF                                   462.903
  ===> Total WRF-GC                        602.815
 max optd  1.6160325E+32
 max taucldi  3.6369368E-09
 max taucldw   52.97681    
 Switching is not necessary as we are already
 in the right domain!
 GIGC_Chunk_Run: Running for in-PET grid #           1
 GIGC_Chunk_Run: Received new grid IM, JM, LM =          15           9
          49
 =================================================
 W R F - G C   T I M E R S
    Domain           1 (Units: s)
 =================================================
  => Coupler Component                       0.855
   -- Physics & Parameterization             0.232
   -- Diagnostics Out                        0.000
  => GEOS-Chem Column                      140.134
  ===> Total Chemistry                     140.989
  => WRF                                   481.092
  ===> Total WRF-GC                        622.081
 HOURLY EMISSIONS UPDATE TIME     7200.0       0.0
mediation_integrate: med_read_wrf_chem_emissions: Read emissions for time 2018-01-01_02:00:00
 max optd  1.6160325E+32
 max taucldi  3.9060430E-09
 max taucldw   53.42406    
 Switching is not necessary as we are already
 in the right domain!
 GIGC_Chunk_Run: Running for in-PET grid #           1
 GIGC_Chunk_Run: Received new grid IM, JM, LM =          15           9
          49
 =================================================
 W R F - G C   T I M E R S
    Domain           1 (Units: s)
 =================================================
  => Coupler Component                       0.890
   -- Physics & Parameterization             0.242
   -- Diagnostics Out                        0.000
  => GEOS-Chem Column                      141.182
  ===> Total Chemistry                     142.072
  => WRF                                   499.305
  ===> Total WRF-GC                        641.376
 max optd  1.6160325E+32
 max taucldi  4.1784789E-09
 max taucldw   54.92919    
 Switching is not necessary as we are already
 in the right domain!
 GIGC_Chunk_Run: Running for in-PET grid #           1
 GIGC_Chunk_Run: Received new grid IM, JM, LM =          15           9
          49
 =================================================
 W R F - G C   T I M E R S
    Domain           1 (Units: s)
 =================================================
  => Coupler Component                       0.926
   -- Physics & Parameterization             0.252
   -- Diagnostics Out                        0.000
  => GEOS-Chem Column                      142.225
  ===> Total Chemistry                     143.151
  => WRF                                   517.533
  ===> Total WRF-GC                        660.683
 max optd  1.6160325E+32
 max taucldi  4.4398365E-09
 max taucldw   56.23661    
 Switching is not necessary as we are already
 in the right domain!
 GIGC_Chunk_Run: Running for in-PET grid #           1
 GIGC_Chunk_Run: Received new grid IM, JM, LM =          15           9
          49
 =================================================
 W R F - G C   T I M E R S
    Domain           1 (Units: s)
 =================================================
  => Coupler Component                       0.962
   -- Physics & Parameterization             0.261
   -- Diagnostics Out                        0.000
  => GEOS-Chem Column                      143.286
  ===> Total Chemistry                     144.248
  => WRF                                   535.657
  ===> Total WRF-GC                        679.905
 max optd  1.6160325E+32
 max taucldi  4.7073119E-09
 max taucldw   57.82417    
 Switching is not necessary as we are already
 in the right domain!
 GIGC_Chunk_Run: Running for in-PET grid #           1
 GIGC_Chunk_Run: Received new grid IM, JM, LM =          15           9
          49
 =================================================
 W R F - G C   T I M E R S
    Domain           1 (Units: s)
 =================================================
  => Coupler Component                       0.993
   -- Physics & Parameterization             0.271
   -- Diagnostics Out                        0.000
  => GEOS-Chem Column                      144.319
  ===> Total Chemistry                     145.313
  => WRF                                   553.795
  ===> Total WRF-GC                        699.108
 max optd  1.6160325E+32
 max taucldi  2.8668003E-08
 max taucldw   59.58546    
 Switching is not necessary as we are already
 in the right domain!
 GIGC_Chunk_Run: Running for in-PET grid #           1
 GIGC_Chunk_Run: Received new grid IM, JM, LM =          15           9
          49
 =================================================
 W R F - G C   T I M E R S
    Domain           1 (Units: s)
 =================================================
  => Coupler Component                       1.025
   -- Physics & Parameterization             0.281
   -- Diagnostics Out                        0.000
  => GEOS-Chem Column                      145.393
  ===> Total Chemistry                     146.418
  => WRF                                   571.932
  ===> Total WRF-GC                        718.350
 max optd  1.6160325E+32
 max taucldi  1.7590014E-07
 max taucldw   61.60512    
 Switching is not necessary as we are already
 in the right domain!
 GIGC_Chunk_Run: Running for in-PET grid #           1
 GIGC_Chunk_Run: Received new grid IM, JM, LM =          15           9
          49
 =================================================
 W R F - G C   T I M E R S
    Domain           1 (Units: s)
 =================================================
  => Coupler Component                       1.062
   -- Physics & Parameterization             0.290
   -- Diagnostics Out                        0.000
  => GEOS-Chem Column                      146.440
  ===> Total Chemistry                     147.502
  => WRF                                   590.055
  ===> Total WRF-GC                        737.557
 max optd  1.6160325E+32
 max taucldi  4.8693283E-07
 max taucldw   62.26531    
 Switching is not necessary as we are already
 in the right domain!
 GIGC_Chunk_Run: Running for in-PET grid #           1
 GIGC_Chunk_Run: Received new grid IM, JM, LM =          15           9
          49
 =================================================
 W R F - G C   T I M E R S
    Domain           1 (Units: s)
 =================================================
  => Coupler Component                       1.097
   -- Physics & Parameterization             0.300
   -- Diagnostics Out                        0.000
  => GEOS-Chem Column                      147.491
  ===> Total Chemistry                     148.588
  => WRF                                   608.202
  ===> Total WRF-GC                        756.789
 max optd  1.6160325E+32
 max taucldi  1.0225278E-06
 max taucldw   62.85194    
 Switching is not necessary as we are already
 in the right domain!
 GIGC_Chunk_Run: Running for in-PET grid #           1
 GIGC_Chunk_Run: Received new grid IM, JM, LM =          15           9
          49
 =================================================
 W R F - G C   T I M E R S
    Domain           1 (Units: s)
 =================================================
  => Coupler Component                       1.130
   -- Physics & Parameterization             0.309
   -- Diagnostics Out                        0.000
  => GEOS-Chem Column                      148.558
  ===> Total Chemistry                     149.688
  => WRF                                   626.297
  ===> Total WRF-GC                        775.984
 max optd  1.6160325E+32
 max taucldi  1.7777002E-06
 max taucldw   63.96247    
 Switching is not necessary as we are already
 in the right domain!
 GIGC_Chunk_Run: Running for in-PET grid #           1
 GIGC_Chunk_Run: Received new grid IM, JM, LM =          15           9
          49
 =================================================
 W R F - G C   T I M E R S
    Domain           1 (Units: s)
 =================================================
  => Coupler Component                       1.163
   -- Physics & Parameterization             0.319
   -- Diagnostics Out                        0.000
  => GEOS-Chem Column                      149.634
  ===> Total Chemistry                     150.797
  => WRF                                   644.390
  ===> Total WRF-GC                        795.187
 max optd  1.6160325E+32
 max taucldi  2.7574799E-06
 max taucldw   63.50545    
 Switching is not necessary as we are already
 in the right domain!
 GIGC_Chunk_Run: Running for in-PET grid #           1
 GIGC_Chunk_Run: Received new grid IM, JM, LM =          15           9
          49
 =================================================
 W R F - G C   T I M E R S
    Domain           1 (Units: s)
 =================================================
  => Coupler Component                       1.197
   -- Physics & Parameterization             0.328
   -- Diagnostics Out                        0.000
  => GEOS-Chem Column                      150.691
  ===> Total Chemistry                     151.887
  => WRF                                   662.518
  ===> Total WRF-GC                        814.406
 max optd  1.6160325E+32
 max taucldi  4.0966756E-06
 max taucldw   62.50971    
 Switching is not necessary as we are already
 in the right domain!
 GIGC_Chunk_Run: Running for in-PET grid #           1
 GIGC_Chunk_Run: Received new grid IM, JM, LM =          15           9
          49
 =================================================
 W R F - G C   T I M E R S
    Domain           1 (Units: s)
 =================================================
  => Coupler Component                       1.229
   -- Physics & Parameterization             0.338
   -- Diagnostics Out                        0.000
  => GEOS-Chem Column                      151.766
  ===> Total Chemistry                     152.995
  => WRF                                   680.576
  ===> Total WRF-GC                        833.571
 max optd  1.6160325E+32
 max taucldi  5.9355093E-06
 max taucldw   62.62517    
 Switching is not necessary as we are already
 in the right domain!
 GIGC_Chunk_Run: Running for in-PET grid #           1
 GIGC_Chunk_Run: Received new grid IM, JM, LM =          15           9
          49
 =================================================
 W R F - G C   T I M E R S
    Domain           1 (Units: s)
 =================================================
  => Coupler Component                       1.262
   -- Physics & Parameterization             0.347
   -- Diagnostics Out                        0.000
  => GEOS-Chem Column                      152.817
  ===> Total Chemistry                     154.079
  => WRF                                   698.641
  ===> Total WRF-GC                        852.721
 HOURLY EMISSIONS UPDATE TIME    10800.0       0.0
mediation_integrate: med_read_wrf_chem_emissions: Read emissions for time 2018-01-01_03:00:00
 max optd  1.6160325E+32
 max taucldi  8.2330189E-06
 max taucldw   63.09163    
 Switching is not necessary as we are already
 in the right domain!
 GIGC_Chunk_Run: Running for in-PET grid #           1
 GIGC_Chunk_Run: Received new grid IM, JM, LM =          15           9
          49
 =================================================
 W R F - G C   T I M E R S
    Domain           1 (Units: s)
 =================================================
  => Coupler Component                       1.295
   -- Physics & Parameterization             0.357
   -- Diagnostics Out                        0.000
  => GEOS-Chem Column                      153.893
  ===> Total Chemistry                     155.189
  => WRF                                   716.780
  ===> Total WRF-GC                        871.968
 max optd  1.6160325E+32
 max taucldi  1.1103142E-05
 max taucldw   64.69100    
 Switching is not necessary as we are already
 in the right domain!
 GIGC_Chunk_Run: Running for in-PET grid #           1
 GIGC_Chunk_Run: Received new grid IM, JM, LM =          15           9
          49
 =================================================
 W R F - G C   T I M E R S
    Domain           1 (Units: s)
 =================================================
  => Coupler Component                       1.330
   -- Physics & Parameterization             0.367
   -- Diagnostics Out                        0.000
  => GEOS-Chem Column                      154.945
  ===> Total Chemistry                     156.276
  => WRF                                   734.846
  ===> Total WRF-GC                        891.121
 max optd  1.6160325E+32
 max taucldi  1.4584428E-05
 max taucldw   65.69228    
 Switching is not necessary as we are already
 in the right domain!
 GIGC_Chunk_Run: Running for in-PET grid #           1
 GIGC_Chunk_Run: Received new grid IM, JM, LM =          15           9
          49
 =================================================
 W R F - G C   T I M E R S
    Domain           1 (Units: s)
 =================================================
  => Coupler Component                       1.365
   -- Physics & Parameterization             0.376
   -- Diagnostics Out                        0.000
  => GEOS-Chem Column                      155.994
  ===> Total Chemistry                     157.359
  => WRF                                   752.964
  ===> Total WRF-GC                        910.323
 max optd  1.6160325E+32
 max taucldi  1.8928176E-05
 max taucldw   67.21214    
 Switching is not necessary as we are already
 in the right domain!
 GIGC_Chunk_Run: Running for in-PET grid #           1
 GIGC_Chunk_Run: Received new grid IM, JM, LM =          15           9
          49
 =================================================
 W R F - G C   T I M E R S
    Domain           1 (Units: s)
 =================================================
  => Coupler Component                       1.401
   -- Physics & Parameterization             0.386
   -- Diagnostics Out                        0.000
  => GEOS-Chem Column                      157.037
  ===> Total Chemistry                     158.438
  => WRF                                   771.054
  ===> Total WRF-GC                        929.492
 max optd  1.6160325E+32
 max taucldi  2.8168006E-05
 max taucldw   66.80417    
 Switching is not necessary as we are already
 in the right domain!
 GIGC_Chunk_Run: Running for in-PET grid #           1
 GIGC_Chunk_Run: Received new grid IM, JM, LM =          15           9
          49
 =================================================
 W R F - G C   T I M E R S
    Domain           1 (Units: s)
 =================================================
  => Coupler Component                       1.433
   -- Physics & Parameterization             0.396
   -- Diagnostics Out                        0.000
  => GEOS-Chem Column                      158.110
  ===> Total Chemistry                     159.543
  => WRF                                   789.129
  ===> Total WRF-GC                        948.672
 max optd  1.6160325E+32
 max taucldi  3.6785299E-05
 max taucldw   66.62380    
 Switching is not necessary as we are already
 in the right domain!
 GIGC_Chunk_Run: Running for in-PET grid #           1
 GIGC_Chunk_Run: Received new grid IM, JM, LM =          15           9
          49
 =================================================
 W R F - G C   T I M E R S
    Domain           1 (Units: s)
 =================================================
  => Coupler Component                       1.468
   -- Physics & Parameterization             0.405
   -- Diagnostics Out                        0.000
  => GEOS-Chem Column                      159.161
  ===> Total Chemistry                     160.629
  => WRF                                   807.454
  ===> Total WRF-GC                        968.083
 max optd  1.6160325E+32
 max taucldi  4.2869789E-05
 max taucldw   63.19783    
 Switching is not necessary as we are already
 in the right domain!
 GIGC_Chunk_Run: Running for in-PET grid #           1
 GIGC_Chunk_Run: Received new grid IM, JM, LM =          15           9
          49
 =================================================
 W R F - G C   T I M E R S
    Domain           1 (Units: s)
 =================================================
  => Coupler Component                       1.502
   -- Physics & Parameterization             0.415
   -- Diagnostics Out                        0.000
  => GEOS-Chem Column                      160.232
  ===> Total Chemistry                     161.734
  => WRF                                   825.632
  ===> Total WRF-GC                        987.366
 max optd  1.6160325E+32
 max taucldi  4.6791589E-05
 max taucldw   59.03355    
 Switching is not necessary as we are already
 in the right domain!
 GIGC_Chunk_Run: Running for in-PET grid #           1
 GIGC_Chunk_Run: Received new grid IM, JM, LM =          15           9
          49
 =================================================
 W R F - G C   T I M E R S
    Domain           1 (Units: s)
 =================================================
  => Coupler Component                       1.539
   -- Physics & Parameterization             0.424
   -- Diagnostics Out                        0.000
  => GEOS-Chem Column                      161.275
  ===> Total Chemistry                     162.813
  => WRF                                   843.661
  ===> Total WRF-GC                       1006.475
 max optd  1.6160325E+32
 max taucldi  4.9439386E-05
 max taucldw   55.65507    
 Switching is not necessary as we are already
 in the right domain!
 GIGC_Chunk_Run: Running for in-PET grid #           1
 GIGC_Chunk_Run: Received new grid IM, JM, LM =          15           9
          49
 =================================================
 W R F - G C   T I M E R S
    Domain           1 (Units: s)
 =================================================
  => Coupler Component                       1.572
   -- Physics & Parameterization             0.433
   -- Diagnostics Out                        0.000
  => GEOS-Chem Column                      162.338
  ===> Total Chemistry                     163.910
  => WRF                                   861.886
  ===> Total WRF-GC                       1025.795
 max optd  1.6160325E+32
 max taucldi  5.0307834E-05
 max taucldw   51.10184    
 Switching is not necessary as we are already
 in the right domain!
 GIGC_Chunk_Run: Running for in-PET grid #           1
 GIGC_Chunk_Run: Received new grid IM, JM, LM =          15           9
          49
 =================================================
 W R F - G C   T I M E R S
    Domain           1 (Units: s)
 =================================================
  => Coupler Component                       1.606
   -- Physics & Parameterization             0.443
   -- Diagnostics Out                        0.000
  => GEOS-Chem Column                      163.394
  ===> Total Chemistry                     165.000
  => WRF                                   880.025
  ===> Total WRF-GC                       1045.024
 max optd  1.6160325E+32
 max taucldi  5.3196029E-05
 max taucldw   51.97844    
 Switching is not necessary as we are already
 in the right domain!
 GIGC_Chunk_Run: Running for in-PET grid #           1
 GIGC_Chunk_Run: Received new grid IM, JM, LM =          15           9
          49
 =================================================
 W R F - G C   T I M E R S
    Domain           1 (Units: s)
 =================================================
  => Coupler Component                       1.641
   -- Physics & Parameterization             0.453
   -- Diagnostics Out                        0.000
  => GEOS-Chem Column                      164.446
  ===> Total Chemistry                     166.086
  => WRF                                   898.120
  ===> Total WRF-GC                       1064.206
 max optd  1.6160325E+32
 max taucldi  5.3974705E-05
 max taucldw   54.10769    
 Switching is not necessary as we are already
 in the right domain!
 GIGC_Chunk_Run: Running for in-PET grid #           1
 GIGC_Chunk_Run: Received new grid IM, JM, LM =          15           9
          49
 =================================================
 W R F - G C   T I M E R S
    Domain           1 (Units: s)
 =================================================
  => Coupler Component                       1.674
   -- Physics & Parameterization             0.463
   -- Diagnostics Out                        0.000
  => GEOS-Chem Column                      165.508
  ===> Total Chemistry                     167.183
  => WRF                                   916.269
  ===> Total WRF-GC                       1083.452
 HOURLY EMISSIONS UPDATE TIME    14400.0       0.0
mediation_integrate: med_read_wrf_chem_emissions: Read emissions for time 2018-01-01_04:00:00
 max optd  1.6160325E+32
 max taucldi  5.5011475E-05
 max taucldw   54.14477    
 Switching is not necessary as we are already
 in the right domain!
 GIGC_Chunk_Run: Running for in-PET grid #           1
 GIGC_Chunk_Run: Received new grid IM, JM, LM =          15           9
          49
 =================================================
 W R F - G C   T I M E R S
    Domain           1 (Units: s)
 =================================================
  => Coupler Component                       1.708
   -- Physics & Parameterization             0.472
   -- Diagnostics Out                        0.000
  => GEOS-Chem Column                      166.575
  ===> Total Chemistry                     168.283
  => WRF                                   934.408
  ===> Total WRF-GC                       1102.691
 max optd  1.6160325E+32
 max taucldi  5.7025954E-05
 max taucldw   54.21247    
 Switching is not necessary as we are already
 in the right domain!
 GIGC_Chunk_Run: Running for in-PET grid #           1
 GIGC_Chunk_Run: Received new grid IM, JM, LM =          15           9
          49
 =================================================
 W R F - G C   T I M E R S
    Domain           1 (Units: s)
 =================================================
  => Coupler Component                       1.743
   -- Physics & Parameterization             0.482
   -- Diagnostics Out                        0.000
  => GEOS-Chem Column                      167.632
  ===> Total Chemistry                     169.376
  => WRF                                   952.527
  ===> Total WRF-GC                       1121.903
 max optd  1.6160325E+32
 max taucldi  5.8267779E-05
 max taucldw   59.94198    
 Switching is not necessary as we are already
 in the right domain!
 GIGC_Chunk_Run: Running for in-PET grid #           1
 GIGC_Chunk_Run: Received new grid IM, JM, LM =          15           9
          49
 =================================================
 W R F - G C   T I M E R S
    Domain           1 (Units: s)
 =================================================
  => Coupler Component                       1.778
   -- Physics & Parameterization             0.492
   -- Diagnostics Out                        0.000
  => GEOS-Chem Column                      168.693
  ===> Total Chemistry                     170.470
  => WRF                                   970.754
  ===> Total WRF-GC                       1141.224
 max optd  1.6160325E+32
 max taucldi  5.9522990E-05
 max taucldw   65.91412    
 Switching is not necessary as we are already
 in the right domain!
 GIGC_Chunk_Run: Running for in-PET grid #           1
 GIGC_Chunk_Run: Received new grid IM, JM, LM =          15           9
          49
 =================================================
 W R F - G C   T I M E R S
    Domain           1 (Units: s)
 =================================================
  => Coupler Component                       1.811
   -- Physics & Parameterization             0.501
   -- Diagnostics Out                        0.000
  => GEOS-Chem Column                      169.757
  ===> Total Chemistry                     171.568
  => WRF                                   988.862
  ===> Total WRF-GC                       1160.431
 max optd  1.6160325E+32
 max taucldi  6.0581027E-05
 max taucldw   70.90687    
 Switching is not necessary as we are already
 in the right domain!
 GIGC_Chunk_Run: Running for in-PET grid #           1
 GIGC_Chunk_Run: Received new grid IM, JM, LM =          15           9
          49
 =================================================
 W R F - G C   T I M E R S
    Domain           1 (Units: s)
 =================================================
  => Coupler Component                       1.845
   -- Physics & Parameterization             0.511
   -- Diagnostics Out                        0.000
  => GEOS-Chem Column                      170.827
  ===> Total Chemistry                     172.672
  => WRF                                  1007.009
  ===> Total WRF-GC                       1179.680
 max optd  1.6160325E+32
 max taucldi  6.1960396E-05
 max taucldw   72.51982    
 Switching is not necessary as we are already
 in the right domain!
 GIGC_Chunk_Run: Running for in-PET grid #           1
 GIGC_Chunk_Run: Received new grid IM, JM, LM =          15           9
          49
 =================================================
 W R F - G C   T I M E R S
    Domain           1 (Units: s)
 =================================================
  => Coupler Component                       1.881
   -- Physics & Parameterization             0.521
   -- Diagnostics Out                        0.000
  => GEOS-Chem Column                      171.883
  ===> Total Chemistry                     173.764
  => WRF                                  1025.135
  ===> Total WRF-GC                       1198.899
 max optd  1.6160325E+32
 max taucldi  6.1827304E-05
 max taucldw   72.23262    
 Switching is not necessary as we are already
 in the right domain!
 GIGC_Chunk_Run: Running for in-PET grid #           1
 GIGC_Chunk_Run: Received new grid IM, JM, LM =          15           9
          49
 =================================================
 W R F - G C   T I M E R S
    Domain           1 (Units: s)
 =================================================
  => Coupler Component                       1.919
   -- Physics & Parameterization             0.530
   -- Diagnostics Out                        0.000
  => GEOS-Chem Column                      172.932
  ===> Total Chemistry                     174.851
  => WRF                                  1043.322
  ===> Total WRF-GC                       1218.174
 max optd  1.6160325E+32
 max taucldi  6.2034000E-05
 max taucldw   73.15327    
 Switching is not necessary as we are already
 in the right domain!
 GIGC_Chunk_Run: Running for in-PET grid #           1
 GIGC_Chunk_Run: Received new grid IM, JM, LM =          15           9
          49
 =================================================
 W R F - G C   T I M E R S
    Domain           1 (Units: s)
 =================================================
  => Coupler Component                       1.956
   -- Physics & Parameterization             0.540
   -- Diagnostics Out                        0.000
  => GEOS-Chem Column                      173.986
  ===> Total Chemistry                     175.942
  => WRF                                  1061.437
  ===> Total WRF-GC                       1237.379
 max optd  1.6160325E+32
 max taucldi  6.1934232E-05
 max taucldw   72.59847    
 Switching is not necessary as we are already
 in the right domain!
 GIGC_Chunk_Run: Running for in-PET grid #           1
 GIGC_Chunk_Run: Received new grid IM, JM, LM =          15           9
          49
 =================================================
 W R F - G C   T I M E R S
    Domain           1 (Units: s)
 =================================================
  => Coupler Component                       1.991
   -- Physics & Parameterization             0.550
   -- Diagnostics Out                        0.000
  => GEOS-Chem Column                      175.043
  ===> Total Chemistry                     177.034
  => WRF                                  1079.580
  ===> Total WRF-GC                       1256.614
 max optd  1.6160325E+32
 max taucldi  6.2116895E-05
 max taucldw   70.19654    
 Switching is not necessary as we are already
 in the right domain!
 GIGC_Chunk_Run: Running for in-PET grid #           1
 GIGC_Chunk_Run: Received new grid IM, JM, LM =          15           9
          49
 =================================================
 W R F - G C   T I M E R S
    Domain           1 (Units: s)
 =================================================
  => Coupler Component                       2.023
   -- Physics & Parameterization             0.559
   -- Diagnostics Out                        0.000
  => GEOS-Chem Column                      176.117
  ===> Total Chemistry                     178.140
  => WRF                                  1097.707
  ===> Total WRF-GC                       1275.846
 max optd  1.6160325E+32
 max taucldi  6.2228653E-05
 max taucldw   67.78592    
 Switching is not necessary as we are already
 in the right domain!
 GIGC_Chunk_Run: Running for in-PET grid #           1
 GIGC_Chunk_Run: Received new grid IM, JM, LM =          15           9
          49
 =================================================
 W R F - G C   T I M E R S
    Domain           1 (Units: s)
 =================================================
  => Coupler Component                       2.058
   -- Physics & Parameterization             0.569
   -- Diagnostics Out                        0.000
  => GEOS-Chem Column                      177.174
  ===> Total Chemistry                     179.232
  => WRF                                  1115.784
  ===> Total WRF-GC                       1295.016
 max optd  1.6160325E+32
 max taucldi  6.2155625E-05
 max taucldw   66.70164    
 Switching is not necessary as we are already
 in the right domain!
 GIGC_Chunk_Run: Running for in-PET grid #           1
 GIGC_Chunk_Run: Received new grid IM, JM, LM =          15           9
          49
 =================================================
 W R F - G C   T I M E R S
    Domain           1 (Units: s)
 =================================================
  => Coupler Component                       2.092
   -- Physics & Parameterization             0.579
   -- Diagnostics Out                        0.000
  => GEOS-Chem Column                      178.231
  ===> Total Chemistry                     180.323
  => WRF                                  1133.841
  ===> Total WRF-GC                       1314.165
 HOURLY EMISSIONS UPDATE TIME    18000.0       0.0
mediation_integrate: med_read_wrf_chem_emissions: Read emissions for time 2018-01-01_05:00:00
 max optd  1.6160325E+32
 max taucldi  6.2183230E-05
 max taucldw   67.20433    
 Switching is not necessary as we are already
 in the right domain!
 GIGC_Chunk_Run: Running for in-PET grid #           1
 GIGC_Chunk_Run: Received new grid IM, JM, LM =          15           9
          49
 =================================================
 W R F - G C   T I M E R S
    Domain           1 (Units: s)
 =================================================
  => Coupler Component                       2.125
   -- Physics & Parameterization             0.588
   -- Diagnostics Out                        0.000
  => GEOS-Chem Column                      179.296
  ===> Total Chemistry                     181.421
  => WRF                                  1152.011
  ===> Total WRF-GC                       1333.432
 max optd  1.6160325E+32
 max taucldi  6.2185412E-05
 max taucldw   66.05528    
 Switching is not necessary as we are already
 in the right domain!
 GIGC_Chunk_Run: Running for in-PET grid #           1
 GIGC_Chunk_Run: Received new grid IM, JM, LM =          15           9
          49
 =================================================
 W R F - G C   T I M E R S
    Domain           1 (Units: s)
 =================================================
  => Coupler Component                       2.160
   -- Physics & Parameterization             0.598
   -- Diagnostics Out                        0.000
  => GEOS-Chem Column                      180.344
  ===> Total Chemistry                     182.504
  => WRF                                  1170.102
  ===> Total WRF-GC                       1352.606
 max optd  1.6160325E+32
 max taucldi  6.2203188E-05
 max taucldw   64.17292    
 Switching is not necessary as we are already
 in the right domain!
 GIGC_Chunk_Run: Running for in-PET grid #           1
 GIGC_Chunk_Run: Received new grid IM, JM, LM =          15           9
          49
 =================================================
 W R F - G C   T I M E R S
    Domain           1 (Units: s)
 =================================================
  => Coupler Component                       2.197
   -- Physics & Parameterization             0.608
   -- Diagnostics Out                        0.000
  => GEOS-Chem Column                      181.382
  ===> Total Chemistry                     183.579
  => WRF                                  1188.210
  ===> Total WRF-GC                       1371.789
 max optd  1.6160325E+32
 max taucldi  6.2234045E-05
 max taucldw   66.68808    
 Switching is not necessary as we are already
 in the right domain!
 GIGC_Chunk_Run: Running for in-PET grid #           1
 GIGC_Chunk_Run: Received new grid IM, JM, LM =          15           9
          49
 =================================================
 W R F - G C   T I M E R S
    Domain           1 (Units: s)
 =================================================
  => Coupler Component                       2.232
   -- Physics & Parameterization             0.618
   -- Diagnostics Out                        0.000
  => GEOS-Chem Column                      182.450
  ===> Total Chemistry                     184.682
  => WRF                                  1206.366
  ===> Total WRF-GC                       1391.048
 max optd  1.6160325E+32
 max taucldi  6.2278952E-05
 max taucldw   70.72857    
 Switching is not necessary as we are already
 in the right domain!
 GIGC_Chunk_Run: Running for in-PET grid #           1
 GIGC_Chunk_Run: Received new grid IM, JM, LM =          15           9
          49
 =================================================
 W R F - G C   T I M E R S
    Domain           1 (Units: s)
 =================================================
  => Coupler Component                       2.265
   -- Physics & Parameterization             0.627
   -- Diagnostics Out                        0.000
  => GEOS-Chem Column                      183.502
  ===> Total Chemistry                     185.766
  => WRF                                  1224.535
  ===> Total WRF-GC                       1410.302
 max optd  1.6160325E+32
 max taucldi  6.2216197E-05
 max taucldw   72.71484    
 Switching is not necessary as we are already
 in the right domain!
 GIGC_Chunk_Run: Running for in-PET grid #           1
 GIGC_Chunk_Run: Received new grid IM, JM, LM =          15           9
          49
 =================================================
 W R F - G C   T I M E R S
    Domain           1 (Units: s)
 =================================================
  => Coupler Component                       2.299
   -- Physics & Parameterization             0.638
   -- Diagnostics Out                        0.000
  => GEOS-Chem Column                      184.548
  ===> Total Chemistry                     186.847
  => WRF                                  1242.637
  ===> Total WRF-GC                       1429.484
 max optd  1.6160325E+32
 max taucldi  6.2200837E-05
 max taucldw   72.96065    
 Switching is not necessary as we are already
 in the right domain!
 GIGC_Chunk_Run: Running for in-PET grid #           1
 GIGC_Chunk_Run: Received new grid IM, JM, LM =          15           9
          49
 =================================================
 W R F - G C   T I M E R S
    Domain           1 (Units: s)
 =================================================
  => Coupler Component                       2.331
   -- Physics & Parameterization             0.647
   -- Diagnostics Out                        0.000
  => GEOS-Chem Column                      185.586
  ===> Total Chemistry                     187.917
  => WRF                                  1260.839
  ===> Total WRF-GC                       1448.757
 max optd  1.6160325E+32
 max taucldi  6.2248429E-05
 max taucldw   72.40625    
 Switching is not necessary as we are already
 in the right domain!
 GIGC_Chunk_Run: Running for in-PET grid #           1
 GIGC_Chunk_Run: Received new grid IM, JM, LM =          15           9
          49
 =================================================
 W R F - G C   T I M E R S
    Domain           1 (Units: s)
 =================================================
  => Coupler Component                       2.364
   -- Physics & Parameterization             0.657
   -- Diagnostics Out                        0.000
  => GEOS-Chem Column                      186.653
  ===> Total Chemistry                     189.017
  => WRF                                  1278.967
  ===> Total WRF-GC                       1467.984
 max optd  1.6160325E+32
 max taucldi  6.2146632E-05
 max taucldw   71.90302    
 Switching is not necessary as we are already
 in the right domain!
 GIGC_Chunk_Run: Running for in-PET grid #           1
 GIGC_Chunk_Run: Received new grid IM, JM, LM =          15           9
          49
 =================================================
 W R F - G C   T I M E R S
    Domain           1 (Units: s)
 =================================================
  => Coupler Component                       2.399
   -- Physics & Parameterization             0.667
   -- Diagnostics Out                        0.000
  => GEOS-Chem Column                      187.691
  ===> Total Chemistry                     190.090
  => WRF                                  1297.121
  ===> Total WRF-GC                       1487.211
 max optd  1.6160325E+32
 max taucldi  6.2220330E-05
 max taucldw   71.89098    
 Switching is not necessary as we are already
 in the right domain!
 GIGC_Chunk_Run: Running for in-PET grid #           1
 GIGC_Chunk_Run: Received new grid IM, JM, LM =          15           9
          49
 =================================================
 W R F - G C   T I M E R S
    Domain           1 (Units: s)
 =================================================
  => Coupler Component                       2.431
   -- Physics & Parameterization             0.677
   -- Diagnostics Out                        0.000
  => GEOS-Chem Column                      188.755
  ===> Total Chemistry                     191.186
  => WRF                                  1315.545
  ===> Total WRF-GC                       1506.731
 max optd  1.6160325E+32
 max taucldi  6.2236111E-05
 max taucldw   72.58677    
 Switching is not necessary as we are already
 in the right domain!
 GIGC_Chunk_Run: Running for in-PET grid #           1
 GIGC_Chunk_Run: Received new grid IM, JM, LM =          15           9
          49
 =================================================
 W R F - G C   T I M E R S
    Domain           1 (Units: s)
 =================================================
  => Coupler Component                       2.463
   -- Physics & Parameterization             0.687
   -- Diagnostics Out                        0.000
  => GEOS-Chem Column                      189.832
  ===> Total Chemistry                     192.294
  => WRF                                  1333.667
  ===> Total WRF-GC                       1525.961
 max optd  1.6160325E+32
 max taucldi  6.2267020E-05
 max taucldw   71.41044    
 Switching is not necessary as we are already
 in the right domain!
 GIGC_Chunk_Run: Running for in-PET grid #           1
 GIGC_Chunk_Run: Received new grid IM, JM, LM =          15           9
          49
 =================================================
 W R F - G C   T I M E R S
    Domain           1 (Units: s)
 =================================================
  => Coupler Component                       2.496
   -- Physics & Parameterization             0.696
   -- Diagnostics Out                        0.000
  => GEOS-Chem Column                      190.883
  ===> Total Chemistry                     193.379
  => WRF                                  1351.774
  ===> Total WRF-GC                       1545.153
 HOURLY EMISSIONS UPDATE TIME    21600.0       0.0
mediation_integrate: med_read_wrf_chem_emissions: Read emissions for time 2018-01-01_06:00:00
 max optd  1.6160325E+32
 max taucldi  6.2290390E-05
 max taucldw   67.76397    
 Switching is not necessary as we are already
 in the right domain!
 GIGC_Chunk_Run: Running for in-PET grid #           1
 GIGC_Chunk_Run: Received new grid IM, JM, LM =          15           9
          49
 =================================================
 W R F - G C   T I M E R S
    Domain           1 (Units: s)
 =================================================
  => Coupler Component                       2.529
   -- Physics & Parameterization             0.706
   -- Diagnostics Out                        0.000
  => GEOS-Chem Column                      191.956
  ===> Total Chemistry                     194.485
  => WRF                                  1810.458
  ===> Total WRF-GC                       2004.943
 max optd  1.6160325E+32
 max taucldi  6.2301304E-05
 max taucldw   62.76899    
 Switching is not necessary as we are already
 in the right domain!
 GIGC_Chunk_Run: Running for in-PET grid #           1
 GIGC_Chunk_Run: Received new grid IM, JM, LM =          15           9
          49
 =================================================
 W R F - G C   T I M E R S
    Domain           1 (Units: s)
 =================================================
  => Coupler Component                       2.565
   -- Physics & Parameterization             0.716
   -- Diagnostics Out                        0.000
  => GEOS-Chem Column                      193.010
  ===> Total Chemistry                     195.575
  => WRF                                  1828.582
  ===> Total WRF-GC                       2024.157
 max optd  1.6160325E+32
 max taucldi  6.2281899E-05
 max taucldw   61.65342    
 Switching is not necessary as we are already
 in the right domain!
 GIGC_Chunk_Run: Running for in-PET grid #           1
 GIGC_Chunk_Run: Received new grid IM, JM, LM =          15           9
          49
 =================================================
 W R F - G C   T I M E R S
    Domain           1 (Units: s)
 =================================================
  => Coupler Component                       2.599
   -- Physics & Parameterization             0.726
   -- Diagnostics Out                        0.000
  => GEOS-Chem Column                      194.073
  ===> Total Chemistry                     196.671
  => WRF                                  1846.858
  ===> Total WRF-GC                       2043.529
 max optd  1.6160325E+32
 max taucldi  6.2329833E-05
 max taucldw   62.79271    
 Switching is not necessary as we are already
 in the right domain!
 GIGC_Chunk_Run: Running for in-PET grid #           1
 GIGC_Chunk_Run: Received new grid IM, JM, LM =          15           9
          49
 =================================================
 W R F - G C   T I M E R S
    Domain           1 (Units: s)
 =================================================
  => Coupler Component                       2.633
[...]
  => GEOS-Chem Column                      241.788
  ===> Total Chemistry                     245.918
  => WRF                                  2664.816
  ===> Total WRF-GC                       2910.734
 HOURLY EMISSIONS UPDATE TIME    36000.0       0.0
mediation_integrate: med_read_wrf_chem_emissions: Read emissions for time 2018-01-01_10:00:00
 max optd  1.6160325E+32
 max taucldi  7.4325522E-05
 max taucldw   75.65041    
 Switching is not necessary as we are already
 in the right domain!
 GIGC_Chunk_Run: Running for in-PET grid #           1
 GIGC_Chunk_Run: Received new grid IM, JM, LM =          15           9
          49
 =================================================
 W R F - G C   T I M E R S
    Domain           1 (Units: s)
 =================================================
  => Coupler Component                       4.166
   -- Physics & Parameterization             1.172
   -- Diagnostics Out                        0.000
  => GEOS-Chem Column                      242.841
  ===> Total Chemistry                     247.007
  => WRF                                  2683.034
  ===> Total WRF-GC                       2930.041
 max optd  1.6160325E+32
 max taucldi  7.5915632E-05
 max taucldw   74.44008    
 Switching is not necessary as we are already
 in the right domain!
 GIGC_Chunk_Run: Running for in-PET grid #           1
 GIGC_Chunk_Run: Received new grid IM, JM, LM =          15           9
          49
 =================================================
 W R F - G C   T I M E R S
    Domain           1 (Units: s)
 =================================================
  => Coupler Component                       4.198
   -- Physics & Parameterization             1.182
   -- Diagnostics Out                        0.000
  => GEOS-Chem Column                      243.913
  ===> Total Chemistry                     248.111
  => WRF                                  2701.196
  ===> Total WRF-GC                       2949.307
 max optd  1.6160325E+32
 max taucldi  7.6359058E-05
 max taucldw   72.82174    
 Switching is not necessary as we are already
 in the right domain!
 GIGC_Chunk_Run: Running for in-PET grid #           1
 GIGC_Chunk_Run: Received new grid IM, JM, LM =          15           9
          49
 =================================================
 W R F - G C   T I M E R S
    Domain           1 (Units: s)
 =================================================
  => Coupler Component                       4.233
   -- Physics & Parameterization             1.192
   -- Diagnostics Out                        0.000
  => GEOS-Chem Column                      244.979
  ===> Total Chemistry                     249.212
  => WRF                                  2719.326
  ===> Total WRF-GC                       2968.538
 max optd  1.6160325E+32
 max taucldi  7.8978534E-05
 max taucldw   74.47071    
 Switching is not necessary as we are already
 in the right domain!
 GIGC_Chunk_Run: Running for in-PET grid #           1
 GIGC_Chunk_Run: Received new grid IM, JM, LM =          15           9
          49
 =================================================
 W R F - G C   T I M E R S
    Domain           1 (Units: s)
 =================================================
  => Coupler Component                       4.268
   -- Physics & Parameterization             1.201
   -- Diagnostics Out                        0.000
  => GEOS-Chem Column                      246.040
  ===> Total Chemistry                     250.308
  => WRF                                  2737.555
  ===> Total WRF-GC                       2987.863
 max optd  1.6160325E+32
 max taucldi  8.0018552E-05
 max taucldw   73.77222    
 Switching is not necessary as we are already
 in the right domain!
 GIGC_Chunk_Run: Running for in-PET grid #           1
 GIGC_Chunk_Run: Received new grid IM, JM, LM =          15           9
          49
 =================================================
 W R F - G C   T I M E R S
    Domain           1 (Units: s)
 =================================================
  => Coupler Component                       4.301
   -- Physics & Parameterization             1.211
   -- Diagnostics Out                        0.000
  => GEOS-Chem Column                      247.098
  ===> Total Chemistry                     251.399
  => WRF                                  2755.734
  ===> Total WRF-GC                       3007.133
 max optd  1.6160325E+32
 max taucldi  8.1325459E-05
 max taucldw   69.30332    
 Switching is not necessary as we are already
 in the right domain!
 GIGC_Chunk_Run: Running for in-PET grid #           1
 GIGC_Chunk_Run: Received new grid IM, JM, LM =          15           9
          49
 =================================================
 W R F - G C   T I M E R S
    Domain           1 (Units: s)
 =================================================
  => Coupler Component                       4.335
   -- Physics & Parameterization             1.220
   -- Diagnostics Out                        0.000
  => GEOS-Chem Column                      248.133
  ===> Total Chemistry                     252.468
  => WRF                                  2773.841
  ===> Total WRF-GC                       3026.309
 max optd  1.6160325E+32
 max taucldi  8.1958926E-05
 max taucldw   67.59300    
 Switching is not necessary as we are already
 in the right domain!
 GIGC_Chunk_Run: Running for in-PET grid #           1
 GIGC_Chunk_Run: Received new grid IM, JM, LM =          15           9
          49
 =================================================
 W R F - G C   T I M E R S
    Domain           1 (Units: s)
 =================================================
  => Coupler Component                       4.373
   -- Physics & Parameterization             1.230
   -- Diagnostics Out                        0.000
  => GEOS-Chem Column                      249.189
  ===> Total Chemistry                     253.562
  => WRF                                  2792.047
  ===> Total WRF-GC                       3045.609
 max optd  1.6160325E+32
 max taucldi  8.3337007E-05
 max taucldw   67.59649    
 Switching is not necessary as we are already
 in the right domain!
 GIGC_Chunk_Run: Running for in-PET grid #           1
 GIGC_Chunk_Run: Received new grid IM, JM, LM =          15           9
          49
 =================================================
 W R F - G C   T I M E R S
    Domain           1 (Units: s)
 =================================================
  => Coupler Component                       4.406
   -- Physics & Parameterization             1.240
   -- Diagnostics Out                        0.000
  => GEOS-Chem Column                      250.245
  ===> Total Chemistry                     254.651
  => WRF                                  2810.207
  ===> Total WRF-GC                       3064.859
 max optd  1.6160325E+32
 max taucldi  8.5249696E-05
 max taucldw   68.06988    
 Switching is not necessary as we are already
 in the right domain!
 GIGC_Chunk_Run: Running for in-PET grid #           1
 GIGC_Chunk_Run: Received new grid IM, JM, LM =          15           9
          49
 =================================================
 W R F - G C   T I M E R S
    Domain           1 (Units: s)
 =================================================
  => Coupler Component                       4.443
   -- Physics & Parameterization             1.249
   -- Diagnostics Out                        0.000
  => GEOS-Chem Column                      251.293
  ===> Total Chemistry                     255.736
  => WRF                                  2828.342
  ===> Total WRF-GC                       3084.078
 max optd  1.6160325E+32
 max taucldi  8.6251464E-05
 max taucldw   66.93656    
 Switching is not necessary as we are already
 in the right domain!
 GIGC_Chunk_Run: Running for in-PET grid #           1
 GIGC_Chunk_Run: Received new grid IM, JM, LM =          15           9
          49
 =================================================
 W R F - G C   T I M E R S
    Domain           1 (Units: s)
 =================================================
  => Coupler Component                       4.478
   -- Physics & Parameterization             1.259
   -- Diagnostics Out                        0.000
  => GEOS-Chem Column                      252.353
  ===> Total Chemistry                     256.831
  => WRF                                  2846.567
  ===> Total WRF-GC                       3103.399
 max optd  1.6160325E+32
 max taucldi  8.7298591E-05
 max taucldw   64.56569    
 Switching is not necessary as we are already
 in the right domain!
 GIGC_Chunk_Run: Running for in-PET grid #           1
 GIGC_Chunk_Run: Received new grid IM, JM, LM =          15           9
          49
 =================================================
 W R F - G C   T I M E R S
    Domain           1 (Units: s)
 =================================================
  => Coupler Component                       4.512
   -- Physics & Parameterization             1.269
   -- Diagnostics Out                        0.000
  => GEOS-Chem Column                      253.407
  ===> Total Chemistry                     257.920
  => WRF                                  2864.710
  ===> Total WRF-GC                       3122.629
 max optd  1.6160325E+32
 max taucldi  8.8091489E-05
 max taucldw   70.70731    
 Switching is not necessary as we are already
 in the right domain!
 GIGC_Chunk_Run: Running for in-PET grid #           1
 GIGC_Chunk_Run: Received new grid IM, JM, LM =          15           9
          49
 =================================================
 W R F - G C   T I M E R S
    Domain           1 (Units: s)
 =================================================
  => Coupler Component                       4.545
   -- Physics & Parameterization             1.279
   -- Diagnostics Out                        0.000
  => GEOS-Chem Column                      254.488
  ===> Total Chemistry                     259.033
  => WRF                                  2882.917
  ===> Total WRF-GC                       3141.950
 HOURLY EMISSIONS UPDATE TIME    39600.0       0.0
mediation_integrate: med_read_wrf_chem_emissions: Read emissions for time 2018-01-01_11:00:00
 max optd  1.6160325E+32
 max taucldi  8.8626162E-05
 max taucldw   72.16868    
 Switching is not necessary as we are already
 in the right domain!
 GIGC_Chunk_Run: Running for in-PET grid #           1
 GIGC_Chunk_Run: Received new grid IM, JM, LM =          15           9
          49
 =================================================
 W R F - G C   T I M E R S
    Domain           1 (Units: s)
 =================================================
  => Coupler Component                       4.581
   -- Physics & Parameterization             1.289
   -- Diagnostics Out                        0.000
  => GEOS-Chem Column                      255.541
  ===> Total Chemistry                     260.121
  => WRF                                  2901.096
  ===> Total WRF-GC                       3161.218
 max optd  1.6160325E+32
 max taucldi  8.8588677E-05
 max taucldw   61.75346    
 Switching is not necessary as we are already
 in the right domain!
 GIGC_Chunk_Run: Running for in-PET grid #           1
 GIGC_Chunk_Run: Received new grid IM, JM, LM =          15           9
          49
 =================================================
 W R F - G C   T I M E R S
    Domain           1 (Units: s)
 =================================================
  => Coupler Component                       4.615
   -- Physics & Parameterization             1.299
   -- Diagnostics Out                        0.000
  => GEOS-Chem Column                      256.603
  ===> Total Chemistry                     261.218
  => WRF                                  2919.215
  ===> Total WRF-GC                       3180.433
 max optd  1.6160325E+32
 max taucldi  8.8160152E-05
 max taucldw   57.65390    
 Switching is not necessary as we are already
 in the right domain!
 GIGC_Chunk_Run: Running for in-PET grid #           1
 GIGC_Chunk_Run: Received new grid IM, JM, LM =          15           9
          49
 =================================================
 W R F - G C   T I M E R S
    Domain           1 (Units: s)
 =================================================
  => Coupler Component                       4.650
   -- Physics & Parameterization             1.308
   -- Diagnostics Out                        0.000
  => GEOS-Chem Column                      257.671
  ===> Total Chemistry                     262.321
  => WRF                                  2937.446
  ===> Total WRF-GC                       3199.767
 max optd  1.6160325E+32
 max taucldi  8.7578432E-05
 max taucldw   61.69120    
 Switching is not necessary as we are already
 in the right domain!
 GIGC_Chunk_Run: Running for in-PET grid #           1
 GIGC_Chunk_Run: Received new grid IM, JM, LM =          15           9
          49
 =================================================
 W R F - G C   T I M E R S
    Domain           1 (Units: s)
 =================================================
  => Coupler Component                       4.685
   -- Physics & Parameterization             1.318
   -- Diagnostics Out                        0.000
  => GEOS-Chem Column                      258.750
  ===> Total Chemistry                     263.434
  => WRF                                  2955.712
  ===> Total WRF-GC                       3219.146
 max optd  1.6160325E+32
 max taucldi  8.6167282E-05
 max taucldw   62.77067    
 Switching is not necessary as we are already
 in the right domain!
 GIGC_Chunk_Run: Running for in-PET grid #           1
 GIGC_Chunk_Run: Received new grid IM, JM, LM =          15           9
          49
 =================================================
 W R F - G C   T I M E R S
    Domain           1 (Units: s)
 =================================================
  => Coupler Component                       4.717
   -- Physics & Parameterization             1.328
   -- Diagnostics Out                        0.000
  => GEOS-Chem Column                      259.819
  ===> Total Chemistry                     264.537
  => WRF                                  2974.114
  ===> Total WRF-GC                       3238.650
 max optd  1.6160325E+32
 max taucldi  8.3766688E-05
 max taucldw   57.37234    
 Switching is not necessary as we are already
 in the right domain!
 GIGC_Chunk_Run: Running for in-PET grid #           1
 GIGC_Chunk_Run: Received new grid IM, JM, LM =          15           9
          49
 =================================================
 W R F - G C   T I M E R S
    Domain           1 (Units: s)
 =================================================
  => Coupler Component                       4.749
   -- Physics & Parameterization             1.338
   -- Diagnostics Out                        0.000
  => GEOS-Chem Column                      260.868
  ===> Total Chemistry                     265.617
  => WRF                                  2992.501
  ===> Total WRF-GC                       3258.118
 max optd  1.6160325E+32
 max taucldi  8.1306047E-05
 max taucldw   51.49744    
 Switching is not necessary as we are already
 in the right domain!
 GIGC_Chunk_Run: Running for in-PET grid #           1
 GIGC_Chunk_Run: Received new grid IM, JM, LM =          15           9
          49
 =================================================
 W R F - G C   T I M E R S
    Domain           1 (Units: s)
 =================================================
  => Coupler Component                       4.778
   -- Physics & Parameterization             1.347
   -- Diagnostics Out                        0.000
  => GEOS-Chem Column                      262.511
  ===> Total Chemistry                     267.289
  => WRF                                  3011.052
  ===> Total WRF-GC                       3278.342
 max optd  1.6160325E+32
 max taucldi  7.9597565E-05
 max taucldw   47.73287    
 Switching is not necessary as we are already
 in the right domain!
 GIGC_Chunk_Run: Running for in-PET grid #           1
 GIGC_Chunk_Run: Received new grid IM, JM, LM =          15           9
          49
 =================================================
 W R F - G C   T I M E R S
    Domain           1 (Units: s)
 =================================================
  => Coupler Component                       4.809
   -- Physics & Parameterization             1.357
   -- Diagnostics Out                        0.000
  => GEOS-Chem Column                      263.811
  ===> Total Chemistry                     268.620
  => WRF                                  3029.053
  ===> Total WRF-GC                       3297.673
 max optd  1.6160325E+32
 max taucldi  7.8243545E-05
 max taucldw   47.29446    
 Switching is not necessary as we are already
 in the right domain!
 GIGC_Chunk_Run: Running for in-PET grid #           1
 GIGC_Chunk_Run: Received new grid IM, JM, LM =          15           9
          49
 =================================================
 W R F - G C   T I M E R S
    Domain           1 (Units: s)
 =================================================
  => Coupler Component                       4.832
   -- Physics & Parameterization             1.367
   -- Diagnostics Out                        0.000
  => GEOS-Chem Column                      265.305
  ===> Total Chemistry                     270.137
  => WRF                                  3047.480
  ===> Total WRF-GC                       3317.617
 max optd  1.6160325E+32
 max taucldi  7.7171462E-05
 max taucldw   47.17003    
 Switching is not necessary as we are already
 in the right domain!
 GIGC_Chunk_Run: Running for in-PET grid #           1
 GIGC_Chunk_Run: Received new grid IM, JM, LM =          15           9
          49
 =================================================
 W R F - G C   T I M E R S
    Domain           1 (Units: s)
 =================================================
  => Coupler Component                       4.862
   -- Physics & Parameterization             1.377
   -- Diagnostics Out                        0.000
  => GEOS-Chem Column                      266.650
  ===> Total Chemistry                     271.512
  => WRF                                  3065.966
  ===> Total WRF-GC                       3337.478
 max optd  1.6160325E+32
 max taucldi  7.6189994E-05
 max taucldw   46.99099    
 Switching is not necessary as we are already
 in the right domain!
 GIGC_Chunk_Run: Running for in-PET grid #           1
 GIGC_Chunk_Run: Received new grid IM, JM, LM =          15           9
          49
 =================================================
 W R F - G C   T I M E R S
    Domain           1 (Units: s)
 =================================================
  => Coupler Component                       4.889
   -- Physics & Parameterization             1.387
   -- Diagnostics Out                        0.000
  => GEOS-Chem Column                      267.964
  ===> Total Chemistry                     272.852
  => WRF                                  3084.484
  ===> Total WRF-GC                       3357.336
 max optd  1.6160325E+32
 max taucldi  7.6131473E-05
 max taucldw   46.89816    
 Switching is not necessary as we are already
 in the right domain!
 GIGC_Chunk_Run: Running for in-PET grid #           1
 GIGC_Chunk_Run: Received new grid IM, JM, LM =          15           9
          49
 =================================================
 W R F - G C   T I M E R S
    Domain           1 (Units: s)
 =================================================
  => Coupler Component                       4.913
   -- Physics & Parameterization             1.396
   -- Diagnostics Out                        0.000
  => GEOS-Chem Column                      269.420
  ===> Total Chemistry                     274.333
  => WRF                                  3102.984
  ===> Total WRF-GC                       3377.317
d01 2018-01-01_12:00:00 wrf: SUCCESS COMPLETE WRF
