taskid: 4218 hostname: ip-172-31-14-183
Quilting with   1 groups of   0 I/O tasks.
 Ntasks in X           64 , ntasks in Y           72
--- WARNING: traj_opt is zero, but num_traj is not zero; setting num_traj to zero.
--- NOTE: sst_update is 0, setting io_form_auxinput4 = 0 and auxinput4_interval = 0 for all domains
--- NOTE: grid_fdda is 0 for domain      1, setting gfdda interval and ending time to 0 for that domain.
--- NOTE: both grid_sfdda and pxlsm_soil_nudge are 0 for domain      1, setting sgfdda interval and ending time to 0 for that domain.
--- NOTE: obs_nudge_opt is 0 for domain      1, setting obs nudging interval and ending time to 0 for that domain.
--- NOTE: bl_pbl_physics /= 4, implies mfshconv must be 0, resetting
Need MYNN PBL for icloud_bl = 1, resetting to 0
*************************************
No physics suite selected.
Physics options will be used directly from the namelist.
*************************************
--- NOTE: RRTMG radiation is in use, setting:  levsiz=59, alevsiz=12, no_src_types=6
--- NOTE: num_soil_layers has been set to      4
WRF V3.9.1.1 MODEL
 *************************************
 Parent domain
 ids,ide,jds,jde            1         950           1         650
 ims,ime,jms,jme          854         882         580         602
 ips,ipe,jps,jpe          861         875         587         595
 *************************************
DYNAMICS OPTION: Eulerian Mass Coordinate
   alloc_space_field: domain            1 ,              203623800  bytes allocated
  med_initialdata_input: calling input_input
Max map factor in domain 1 =  1.40. Scale the dt in the model accordingly.
INPUT LandUse = "USGS"
 LANDUSE TYPE = "USGS" FOUND          33  CATEGORIES           2  SEASONS WATER CATEGORY =           16  SNOW CATEGORY =           24
INITIALIZE THREE Noah LSM RELATED TABLES
*****************************************************************
  __          _______  ______       _____  _____ _    _ _____
  \ \        / /  __ \|  ____|     / ____|/ ____| |  | |  __ \
   \ \  /\  / /| |__) | |__ ______| |  __| |    | |__| | |__) |
    \ \/  \/ / |  _  /|  __|______| | |_ | |    |  __  |  ___/
     \  /\  /  | | \ \| |         | |__| | |____| |  | | |
      \/  \/   |_|  \_\_|          \_____|\_____|_|  |_|_|
*****************************************************************
         WRF-GC MODEL, VERSION 1811.11 - WRF BINDINGS
 For errors, suggestions & feedback email linhaipeng@pku.edu.cn
*****************************************************************
    This is domain            1
 ### GIGC_Stateful_Mod: Root CPU, after READ_INPUT_FILE
  Linoz Data:  O3 climatology :                  z*=10, 12, ..., 58                             2.700E-08 1.083E-05
  Linoz Data:  Temperature climatology :         z*=10, 12, ..., 58                             1.859E+02 2.904E+02
  Linoz Data:  Column O3 above box climalology : z*=10, 12, ..., 58                             7.538E-02 3.770E+02
  Linoz Data:  P-L O3 climatology (mr/s):        z*=10, 12, ..., 58                            -1.590E-10 2.835E-11
  Linoz Data:  d(P-L)/dO3 (1/s) :                z*=10, 12, ..., 58                            -8.386E-04 7.556E-09
  Linoz Data:  d(P-L)/dT (mr/K) :                z*=10, 12, ..., 58                            -5.742E-12 4.615E-14
  Linoz Data:  d(P-L)/d(column O3) (mr/DU) :     z*=10, 12, ..., 58                            -1.921E-12 5.038E-10
 ### GIGC_Stateful_Mod: Root CPU, after LINOZ_READ
 %%%%%%%%% GIGC IN-PET GRID SWITCHING HACKS %%%%%%%%%
     (Not very) Proudly brought to you by hplin      
 Some debug information:
 ID:           1
 IM, JM, LM:          15           9          49  will be set as PAR
 Allocs: CMN T GC F
 RC at entry-point:           0
 %%%%%%%%%%%%%%%%%%%%%%%%%%%%%%%%%%%%%%%%%%%%%%%%%%%%
 No need to switch HcoState for ID           1
 Exit RC:            0
 %%%%%%%%%    FINISHED GIGC_Switch_Dims    %%%%%%%%%
 GIGC_Chunk_Init: Received new grid IM, JM, LM =          15           9
          49
     ### GIGC_INIT_SIMULATION: after Input_Opt% setups
     ### GIGC_INIT_SIMULATION: after GC_Init_All
     ### GIGC_INIT_SIMULATION: after GC_Init_Extra
     ### GIGC_INIT_SIMULATION: after INIT_FJX
 # GIGC_CHUNK_MOD: after SV save, ID =           1
 WRFGC chemics_init: Following information regarding Input_Opt% (for all doms)
 After domain           1
 HPC:  T
 LPRT:  F
 DoConv:  T
 DoDryDep:  T
 DoEmis:  T
 DoChem:  T
 DoTurb:  T
 DoWetDep:  T

 tropopause_init: DONE intialized domain            1

 mediation_integrate: med_read_wrf_chem_emissions: Open file wrfchemi_00z_d01
 HOURLY EMISSIONS UPDATE TIME        0.0       0.0
mediation_integrate: med_read_wrf_chem_emissions: Read emissions for time 2018-01-01_00:00:00
open_aux_u : error opening wrffirechemi_d01_2018-01-01_00:00:00 for reading. 100
open_aux_u : error opening wrfchemi_gocart_bg_d01 for reading. 100
d01 2018-01-01_00:00:00 Input data processed for aux input   8 for domain   1
open_aux_u : error opening wrfchemv_d01 for reading. 100
 Tile Strategy is not specified. Assuming 1D-Y
WRF TILE   1 IS    861 IE    875 JS    587 JE    595
WRF NUMBER OF TILES =   1
 max optd  3.3547268E+12
 max taucldi  0.0000000E+00
 max taucldw  0.0000000E+00
 =================================================
 W R F - G C   T I M E R S
    Domain           1 (Units: s)
 =================================================
  => Coupler Component                       0.029
   -- Physics & Parameterization             0.001
   -- Diagnostics Out                        0.000
  => GEOS-Chem Column                        0.000
  ===> Total Chemistry                       0.029
  => WRF                                     0.000
  ===> Total WRF-GC                          0.029
 max optd  3.3547268E+12
 max taucldi  1.0000007E-14
 max taucldw  1.0000007E-14
 %%%%%%%%% GIGC IN-PET GRID SWITCHING HACKS %%%%%%%%%
     (Not very) Proudly brought to you by hplin      
 Some debug information:
 ID:           1
 IM, JM, LM:          15           9          49  will be set as PAR
 Allocs: CMN T GC T
 RC at entry-point:           0
 %%%%%%%%%%%%%%%%%%%%%%%%%%%%%%%%%%%%%%%%%%%%%%%%%%%%
 No need to switch HcoState for ID           1
 Debug HcoState nSpc, NX, NY, NZ         163          15           9          49
 Exit RC:            0
 %%%%%%%%%    FINISHED GIGC_Switch_Dims    %%%%%%%%%
 GIGC_Chunk_Run: Running for in-PET grid #           1
 GIGC_Chunk_Run: Received new grid IM, JM, LM =          15           9
          49
HEMCO: Opening /fsx/HEMCO/BIOFUEL/v2014-07/biofuel.geos.4x5.nc
HEMCO: Opening /fsx/HEMCO/BROMINE/v2015-02/Bromocarb_Liang2010.nc
HEMCO: Opening /fsx/HEMCO/ACET/v2014-07/ACET_seawater.generic.1x1.nc
HEMCO: Opening /fsx/HEMCO/SOILNOX/v2014-07/DepReservoirDefault.nc
HEMCO: Opening /fsx/HEMCO/SOILNOX/v2014-07/soilNOx.landtype.generic.025x025.1L.nc
HEMCO: Opening /fsx/HEMCO/SOILNOX/v2014-07/soilNOx.climate.generic.05x05.nc
HEMCO: Opening /fsx/HEMCO/DUST_DEAD/v2014-07/dst_tibds.geos.4x5.nc
HEMCO: Opening /fsx/HEMCO/DUST_DEAD/v2014-07/GOCART_src_fn.geos.4x5.nc
HEMCO: Opening /fsx/HEMCO/MEGAN/v2018-05/MEGAN2.1_EF.geos.025x03125.nc
HEMCO: Opening /fsx/HEMCO/MEGAN/v2017-07/CLM4_PFT.geos.025x03125.nc
HEMCO: Opening /fsx/HEMCO/TIMEZONES/v2015-02/timezones_voronoi_1x1.nc
HEMCO: Opening /fsx/HEMCO/STRAT/v2015-01/Bry/GEOSCCM_Bry.200701.day.nc
HEMCO: Opening /fsx/HEMCO/STRAT/v2015-01/Bry/GEOSCCM_Bry.200701.night.nc
HEMCO: Opening /fsx/HEMCO/OMOC/v2018-01/OMOC.DJF.01x01.nc
HEMCO: Opening /fsx/HEMCO/OMOC/v2018-01/OMOC.MAM.01x01.nc
HEMCO: Opening /fsx/HEMCO/OMOC/v2018-01/OMOC.JJA.01x01.nc
HEMCO: Opening /fsx/HEMCO/OMOC/v2018-01/OMOC.SON.01x01.nc
HEMCO: Opening /fsx/HEMCO/AnnualScalar/v2014-07/AnnualScalar.geos.1x1.nc
HEMCO: Opening /fsx/HEMCO/EDGARv42/v2015-02/NO/EDGAR_hourly_NOxScal.nc
HEMCO: Opening /fsx/HEMCO/MASKS/v2018-09/EMEP_mask.geos.1x1.20151222.nc
HEMCO: Opening /fsx/HEMCO/MASKS/v2018-09/Canada_mask.geos.1x1.nc
HEMCO: Opening /fsx/HEMCO/MASKS/v2018-09/SE_Asia_mask.generic.1x1.nc
HEMCO: Opening /fsx/HEMCO/MASKS/v2018-09/MIX_Asia_mask.generic.025x025.nc
HEMCO: Opening /fsx/HEMCO/MASKS/v2018-09/CONUS_Mask.01x01.nc
HEMCO: Opening /fsx/HEMCO/MASKS/v2018-09/AF_LANDMASK.geos.05x0666.global.nc
HEMCO: Opening /fsx/HEMCO/MASKS/v2018-09/China_mask.generic.1x1.nc
HEMCO: Opening /fsx/HEMCO/MASKS/v2018-09/India_mask.generic.1x1.nc
HEMCO: Opening /fsx/HEMCO/AnnualScalar/v2014-07/AnnualScalar.geos.1x1.nc
HEMCO: Opening /fsx/HEMCO/NH3/v2014-07/NH3_geos.4x5.nc
HEMCO: Opening /fsx/HEMCO/NH3/v2018-04/NH3_Arctic_seabirds.nc
HEMCO: Opening /fsx/HEMCO/CEDS/v2018-08/2014/NO-em-anthro_CMIP_CEDS_2014.nc
HEMCO: Opening /fsx/HEMCO/CEDS/v2018-08/2014/CO-em-anthro_CMIP_CEDS_2014.nc
HEMCO: Opening /fsx/HEMCO/CEDS/v2018-08/2014/SO2-em-anthro_CMIP_CEDS_2014.nc
HEMCO: Opening /fsx/HEMCO/CEDS/v2018-08/2014/NH3-em-anthro_CMIP_CEDS_2014.nc
HEMCO: Opening /fsx/HEMCO/CEDS/v2018-08/2014/BC-em-anthro_CMIP_CEDS_2014.nc
HEMCO: Opening /fsx/HEMCO/CEDS/v2018-08/2014/OC-em-anthro_CMIP_CEDS_2014.nc
HEMCO: Opening /fsx/HEMCO/CEDS/v2018-08/2014/EOH-em-anthro_CMIP_CEDS_2014.nc
HEMCO: Opening /fsx/HEMCO/CEDS/v2018-08/2014/C2H6-em-anthro_CMIP_CEDS_2014.nc
HEMCO: Opening /fsx/HEMCO/CEDS/v2018-08/2014/C3H8-em-anthro_CMIP_CEDS_2014.nc
HEMCO: Opening /fsx/HEMCO/CEDS/v2018-08/2014/ALK4_butanes-em-anthro_CMIP_CEDS_2014.nc
HEMCO: Opening /fsx/HEMCO/CEDS/v2018-08/2014/ALK4_pentanes-em-anthro_CMIP_CEDS_2014.nc
HEMCO: Opening /fsx/HEMCO/CEDS/v2018-08/2014/ALK4_hexanes-em-anthro_CMIP_CEDS_2014.nc
HEMCO: Opening /fsx/HEMCO/CEDS/v2018-08/2014/PRPE-em-anthro_CMIP_CEDS_2014.nc
HEMCO: Opening /fsx/HEMCO/CEDS/v2018-08/2014/BENZ-em-anthro_CMIP_CEDS_2014.nc
HEMCO: Opening /fsx/HEMCO/CEDS/v2018-08/2014/TOLU-em-anthro_CMIP_CEDS_2014.nc
HEMCO: Opening /fsx/HEMCO/CEDS/v2018-08/2014/XYLE-em-anthro_CMIP_CEDS_2014.nc
HEMCO: Opening /fsx/HEMCO/CEDS/v2018-08/2014/CH2O-em-anthro_CMIP_CEDS_2014.nc
HEMCO: Opening /fsx/HEMCO/CEDS/v2018-08/2014/ALD2-em-anthro_CMIP_CEDS_2014.nc
HEMCO: Opening /fsx/HEMCO/CEDS/v2018-08/2014/MEK-em-anthro_CMIP_CEDS_2014.nc
HEMCO: Opening /fsx/HEMCO/CEDS/v2018-08/2014/HCOOH-em-anthro_CMIP_CEDS_2014.nc
HEMCO: Opening /fsx/HEMCO/C2H6_2010/v2017-05/C2H6_global_anth_biof.201001.nc
HEMCO: Opening /fsx/HEMCO/NEI2011/v2017-02-MM/01/NEI11_0.1x0.1_201101_monmean.nc
HEMCO: Opening /fsx/HEMCO/NEI2011/v2017-02-MM/01/NEI11_0.1x0.1_201101_monmean_egu.nc
HEMCO: Opening /fsx/HEMCO/NEI2011/v2017-02-MM/01/NEI11_0.1x0.1_201101_monmean_egupk.nc
HEMCO: Opening /fsx/HEMCO/NEI2011/v2017-02-MM/01/NEI11_0.1x0.1_201101_monmean_oilgas.nc
HEMCO: Opening /fsx/HEMCO/NEI2011/v2017-02-MM/01/NEI11_0.1x0.1_201101_monmean_othpt.nc
HEMCO: Opening /fsx/HEMCO/NEI2011/v2017-02-MM/01/NEI11_0.1x0.1_201101_monmean_ptnonipm.nc
HEMCO: Opening /fsx/HEMCO/IODINE/v2017-09/CH3I_monthly_emissions_Ordonez_2012_COARDS.nc
HEMCO: Opening /fsx/HEMCO/IODINE/v2017-09/CH2I2_monthly_emissions_Ordonez_2012_COARDS.nc
HEMCO: Opening /fsx/HEMCO/IODINE/v2017-09/CH2ICl_monthly_emissions_Ordonez_2012_COARDS.nc
HEMCO: Opening /fsx/HEMCO/IODINE/v2017-09/CH2IBr_monthly_emissions_Ordonez_2012_COARDS.nc
HEMCO: Opening /fsx/HEMCO/CEDS/v2018-08/2014/CO-em-anthro_CMIP_CEDS_2014.nc
HEMCO: Opening /fsx/HEMCO/CEDS/v2018-08/2014/SO2-em-anthro_CMIP_CEDS_2014.nc
HEMCO: Opening /fsx/HEMCO/CEDS/v2018-08/2014/NH3-em-anthro_CMIP_CEDS_2014.nc
HEMCO: Opening /fsx/HEMCO/CEDS/v2018-08/2014/BC-em-anthro_CMIP_CEDS_2014.nc
HEMCO: Opening /fsx/HEMCO/CEDS/v2018-08/2014/OC-em-anthro_CMIP_CEDS_2014.nc
HEMCO: Opening /fsx/HEMCO/CEDS/v2018-08/2014/EOH-em-anthro_CMIP_CEDS_2014.nc
HEMCO: Opening /fsx/HEMCO/CEDS/v2018-08/2014/C2H6-em-anthro_CMIP_CEDS_2014.nc
HEMCO: Opening /fsx/HEMCO/CEDS/v2018-08/2014/C3H8-em-anthro_CMIP_CEDS_2014.nc
HEMCO: Opening /fsx/HEMCO/CEDS/v2018-08/2014/ALK4_butanes-em-anthro_CMIP_CEDS_2014.nc
HEMCO: Opening /fsx/HEMCO/CEDS/v2018-08/2014/ALK4_pentanes-em-anthro_CMIP_CEDS_2014.nc
HEMCO: Opening /fsx/HEMCO/CEDS/v2018-08/2014/ALK4_hexanes-em-anthro_CMIP_CEDS_2014.nc
HEMCO: Opening /fsx/HEMCO/CEDS/v2018-08/2014/PRPE-em-anthro_CMIP_CEDS_2014.nc
HEMCO: Opening /fsx/HEMCO/CEDS/v2018-08/2014/BENZ-em-anthro_CMIP_CEDS_2014.nc
HEMCO: Opening /fsx/HEMCO/CEDS/v2018-08/2014/TOLU-em-anthro_CMIP_CEDS_2014.nc
HEMCO: Opening /fsx/HEMCO/CEDS/v2018-08/2014/XYLE-em-anthro_CMIP_CEDS_2014.nc
HEMCO: Opening /fsx/HEMCO/CEDS/v2018-08/2014/CH2O-em-anthro_CMIP_CEDS_2014.nc
HEMCO: Opening /fsx/HEMCO/CEDS/v2018-08/2014/ALD2-em-anthro_CMIP_CEDS_2014.nc
HEMCO: Opening /fsx/HEMCO/CEDS/v2018-08/2014/MEK-em-anthro_CMIP_CEDS_2014.nc
HEMCO: Opening /fsx/HEMCO/CEDS/v2018-08/2014/HCOOH-em-anthro_CMIP_CEDS_2014.nc
HEMCO: Opening /fsx/HEMCO/CEDS/v2018-08/2014/NO-em-anthro_CMIP_CEDS_2014.nc
HEMCO: Opening /fsx/HEMCO/AEIC/v2015-01/AEIC.47L.gen.1x1.nc
HEMCO: Opening /fsx/HEMCO/ALD2/v2017-03/resp.geos.2x25.nc
HEMCO: Opening /fsx/HEMCO/DMS/v2015-07/DMS_lana.geos.1x1.nc
HEMCO: Opening /fsx/HEMCO/ALD2/v2017-03/ALD2_seawater.geos.2x25.nc
HEMCO: Opening /fsx/HEMCO/DUST_DEAD/v2014-07/dst_tvbds.geos.4x5.nc
HEMCO: Opening /fsx/HEMCO/DUST_DEAD/v2018-04/PM25FINE_ECLIPSE_2015.geos.2x25.nc
HEMCO: Opening /fsx/HEMCO/SOA/v2014-07/NVOC.geos.1x1.nc
HEMCO: Opening /fsx/HEMCO/GFED4/v2015-10/2016/GFED4_gen.025x025.201601.nc
HEMCO: Opening /fsx/HEMCO/UVALBEDO/v2015-03/uvalbedo.geos.2x25.nc
HEMCO: Opening /fsx/HEMCO/GMI/v2015-02/gmi.clim.ACET.geos5.2x25.nc
HEMCO: Opening /fsx/HEMCO/GMI/v2015-02/gmi.clim.ACTA.geos5.2x25.nc
HEMCO: Opening /fsx/HEMCO/GMI/v2015-02/gmi.clim.ALD2.geos5.2x25.nc
HEMCO: Opening /fsx/HEMCO/GMI/v2015-02/gmi.clim.ALK4.geos5.2x25.nc
HEMCO: Opening /fsx/HEMCO/GMI/v2015-02/gmi.clim.C2H6.geos5.2x25.nc
HEMCO: Opening /fsx/HEMCO/GMI/v2015-02/gmi.clim.C3H8.geos5.2x25.nc
HEMCO: Opening /fsx/HEMCO/GMI/v2015-02/gmi.clim.CCl4.geos5.2x25.nc
HEMCO: Opening /fsx/HEMCO/GMI/v2015-02/gmi.clim.CF2Cl2.geos5.2x25.nc
HEMCO: Opening /fsx/HEMCO/GMI/v2015-02/gmi.clim.CF2ClBr.geos5.2x25.nc
HEMCO: Opening /fsx/HEMCO/GMI/v2015-02/gmi.clim.CFC113.geos5.2x25.nc
HEMCO: Opening /fsx/HEMCO/GMI/v2015-02/gmi.clim.CFC114.geos5.2x25.nc
HEMCO: Opening /fsx/HEMCO/GMI/v2015-02/gmi.clim.CFC115.geos5.2x25.nc
HEMCO: Opening /fsx/HEMCO/GMI/v2015-02/gmi.clim.CFCl3.geos5.2x25.nc
HEMCO: Opening /fsx/HEMCO/GMI/v2015-02/gmi.clim.CH2O.geos5.2x25.nc
HEMCO: Opening /fsx/HEMCO/GMI/v2015-02/gmi.clim.CH3CCl3.geos5.2x25.nc
HEMCO: Opening /fsx/HEMCO/GMI/v2015-02/gmi.clim.CH3Cl.geos5.2x25.nc
HEMCO: Opening /fsx/HEMCO/GMI/v2015-02/gmi.clim.CH4.geos5.2x25.nc
HEMCO: Opening /fsx/HEMCO/GMI/v2015-02/gmi.clim.CO.geos5.2x25.nc
HEMCO: Opening /fsx/HEMCO/GMI/v2015-02/gmi.clim.Cl.geos5.2x25.nc
HEMCO: Opening /fsx/HEMCO/GMI/v2015-02/gmi.clim.Cl2.geos5.2x25.nc
HEMCO: Opening /fsx/HEMCO/GMI/v2015-02/gmi.clim.Cl2O2.geos5.2x25.nc
HEMCO: Opening /fsx/HEMCO/GMI/v2015-02/gmi.clim.ClO.geos5.2x25.nc
HEMCO: Opening /fsx/HEMCO/GMI/v2015-02/gmi.clim.EOH.geos5.2x25.nc
HEMCO: Opening /fsx/HEMCO/GMI/v2015-02/gmi.clim.GLYC.geos5.2x25.nc
HEMCO: Opening /fsx/HEMCO/GMI/v2015-02/gmi.clim.GLYX.geos5.2x25.nc
HEMCO: Opening /fsx/HEMCO/GMI/v2015-02/gmi.clim.H2402.geos5.2x25.nc
HEMCO: Opening /fsx/HEMCO/GMI/v2015-02/gmi.clim.H2O.geos5.2x25.nc
HEMCO: Opening /fsx/HEMCO/GMI/v2015-02/gmi.clim.H2O2.geos5.2x25.nc
HEMCO: Opening /fsx/HEMCO/GMI/v2015-02/gmi.clim.HAC.geos5.2x25.nc
HEMCO: Opening /fsx/HEMCO/GMI/v2015-02/gmi.clim.HCFC141b.geos5.2x25.nc
HEMCO: Opening /fsx/HEMCO/GMI/v2015-02/gmi.clim.HCFC142b.geos5.2x25.nc
HEMCO: Opening /fsx/HEMCO/GMI/v2015-02/gmi.clim.HCFC22.geos5.2x25.nc
HEMCO: Opening /fsx/HEMCO/GMI/v2015-02/gmi.clim.HCOOH.geos5.2x25.20170108.nc
HEMCO: Opening /fsx/HEMCO/GMI/v2015-02/gmi.clim.HCl.geos5.2x25.nc
HEMCO: Opening /fsx/HEMCO/GMI/v2015-02/gmi.clim.HNO2.geos5.2x25.nc
HEMCO: Opening /fsx/HEMCO/GMI/v2015-02/gmi.clim.HNO3.geos5.2x25.nc
HEMCO: Opening /fsx/HEMCO/GMI/v2015-02/gmi.clim.HNO4.geos5.2x25.nc
HEMCO: Opening /fsx/HEMCO/GMI/v2015-02/gmi.clim.HOCl.geos5.2x25.nc
HEMCO: Opening /fsx/HEMCO/GMI/v2015-02/gmi.clim.ISN1.geos5.2x25.nc
HEMCO: Opening /fsx/HEMCO/GMI/v2015-02/gmi.clim.ISOP.geos5.2x25.nc
HEMCO: Opening /fsx/HEMCO/GMI/v2015-02/gmi.clim.MACR.geos5.2x25.nc
HEMCO: Opening /fsx/HEMCO/GMI/v2015-02/gmi.clim.MAP.geos5.2x25.nc
HEMCO: Opening /fsx/HEMCO/GMI/v2015-02/gmi.clim.MEK.geos5.2x25.nc
HEMCO: Opening /fsx/HEMCO/GMI/v2015-02/gmi.clim.MGLY.geos5.2x25.nc
HEMCO: Opening /fsx/HEMCO/GMI/v2015-02/gmi.clim.MP.geos5.2x25.nc
HEMCO: Opening /fsx/HEMCO/GMI/v2015-02/gmi.clim.MVK.geos5.2x25.nc
HEMCO: Opening /fsx/HEMCO/GMI/v2015-02/gmi.clim.N2O.geos5.2x25.nc
HEMCO: Opening /fsx/HEMCO/GMI/v2015-02/gmi.clim.N2O5.geos5.2x25.nc
HEMCO: Opening /fsx/HEMCO/GMI/v2015-02/gmi.clim.NO.geos5.2x25.nc
HEMCO: Opening /fsx/HEMCO/GMI/v2015-02/gmi.clim.NO2.geos5.2x25.nc
HEMCO: Opening /fsx/HEMCO/GMI/v2015-02/gmi.clim.NO3.geos5.2x25.nc
HEMCO: Opening /fsx/HEMCO/GMI/v2015-02/gmi.clim.O3.geos5.2x25.nc
HEMCO: Opening /fsx/HEMCO/GMI/v2015-02/gmi.clim.OClO.geos5.2x25.nc
HEMCO: Opening /fsx/HEMCO/GMI/v2015-02/gmi.clim.PAN.geos5.2x25.nc
HEMCO: Opening /fsx/HEMCO/GMI/v2015-02/gmi.clim.NPMN.geos5.2x25.nc
HEMCO: Opening /fsx/HEMCO/GMI/v2015-02/gmi.clim.IPMN.geos5.2x25.nc
HEMCO: Opening /fsx/HEMCO/GMI/v2015-02/gmi.clim.PPN.geos5.2x25.nc
HEMCO: Opening /fsx/HEMCO/GMI/v2015-02/gmi.clim.PRPE.geos5.2x25.nc
HEMCO: Opening /fsx/HEMCO/GMI/v2015-02/gmi.clim.R4N2.geos5.2x25.nc
HEMCO: Opening /fsx/HEMCO/GMI/v2015-02/gmi.clim.RCHO.geos5.2x25.nc
HEMCO: Opening /fsx/HEMCO/GMI/v2015-02/gmi.clim.RIPA.geos5.2x25.nc
HEMCO: Opening /fsx/HEMCO/GMI/v2015-02/gmi.clim.RIPB.geos5.2x25.nc
HEMCO: Opening /fsx/HEMCO/GMI/v2015-02/gmi.clim.RIPD.geos5.2x25.nc
HEMCO: Opening /fsx/HEMCO/GMI/v2015-02/gmi.clim.OH.geos5.2x25.nc
HEMCO: Opening /fsx/HEMCO/NOAA_GMD/v2018-01/monthly.gridded.surface.methane.1979-2020.1x1.nc
HEMCO: Opening /fsx/HEMCO/GEIA/v2014-07/GEIA_monthscal.generic.1x1.nc
HEMCO: Opening /fsx/HEMCO/EMEP/v2015-03/EMEP.Seasonal.geos.1x1.nc
HEMCO: Opening /fsx/HEMCO/BROMINE/v2015-02/BromoCarb_Season.nc
HEMCO: Opening /fsx/HEMCO/EDGARv43/v2016-11/EDGAR_v43.Seasonal.1x1.nc
HEMCO: Opening /fsx/HEMCO/NEI2005/v2014-09/scaling/NEI99.dow.geos.1x1.nc
HEMCO: Opening /fsx/HEMCO/VOLCANO/v2015-02/2009/volc_so2_gen.1x1.47L.200901.nc
HEMCO: Opening /fsx/HEMCO/SOILNOX/v2014-07/soilNOx.fert_res.generic.05x05.nc
 vdinti: pbl height will be limited to bottom           25  model levels. top is
     431.250100000000       hpa
 =================================================
 W R F - G C   T I M E R S
    Domain           1 (Units: s)
 =================================================
  => Coupler Component                       0.059
   -- Physics & Parameterization             0.010
   -- Diagnostics Out                        0.000
  => GEOS-Chem Column                       76.856
  ===> Total Chemistry                      76.914
  => WRF                                    17.521
  ===> Total WRF-GC                         94.435
 max optd  1.9364301E+31
 max taucldi  2.0202712E-08
 max taucldw  2.0977058E-08
 Switching is not necessary as we are already
 in the right domain!
 GIGC_Chunk_Run: Running for in-PET grid #           1
 GIGC_Chunk_Run: Received new grid IM, JM, LM =          15           9
          49
 =================================================
 W R F - G C   T I M E R S
    Domain           1 (Units: s)
 =================================================
  => Coupler Component                       0.095
   -- Physics & Parameterization             0.020
   -- Diagnostics Out                        0.000
  => GEOS-Chem Column                       77.941
  ===> Total Chemistry                      78.036
  => WRF                                   114.251
  ===> Total WRF-GC                        192.288
 max optd  1.9364301E+31
 max taucldi  3.6958621E-08
 max taucldw  3.9599701E-08
 Switching is not necessary as we are already
 in the right domain!
 GIGC_Chunk_Run: Running for in-PET grid #           1
 GIGC_Chunk_Run: Received new grid IM, JM, LM =          15           9
          49
 =================================================
 W R F - G C   T I M E R S
    Domain           1 (Units: s)
 =================================================
  => Coupler Component                       0.126
   -- Physics & Parameterization             0.030
   -- Diagnostics Out                        0.000
  => GEOS-Chem Column                       78.980
  ===> Total Chemistry                      79.106
  => WRF                                   135.015
  ===> Total WRF-GC                        214.121
 max optd  1.9364301E+31
 max taucldi  5.1863733E-08
 max taucldw  5.9096596E-08
 Switching is not necessary as we are already
 in the right domain!
 GIGC_Chunk_Run: Running for in-PET grid #           1
 GIGC_Chunk_Run: Received new grid IM, JM, LM =          15           9
          49
 =================================================
 W R F - G C   T I M E R S
    Domain           1 (Units: s)
 =================================================
  => Coupler Component                       0.161
   -- Physics & Parameterization             0.039
   -- Diagnostics Out                        0.000
  => GEOS-Chem Column                       80.011
  ===> Total Chemistry                      80.173
  => WRF                                   154.073
  ===> Total WRF-GC                        234.246
 max optd  1.9364301E+31
 max taucldi  6.6893726E-08
 max taucldw  7.8433452E-08
 Switching is not necessary as we are already
 in the right domain!
 GIGC_Chunk_Run: Running for in-PET grid #           1
 GIGC_Chunk_Run: Received new grid IM, JM, LM =          15           9
          49
 =================================================
 W R F - G C   T I M E R S
    Domain           1 (Units: s)
 =================================================
  => Coupler Component                       0.197
   -- Physics & Parameterization             0.049
   -- Diagnostics Out                        0.000
  => GEOS-Chem Column                       81.031
  ===> Total Chemistry                      81.228
  => WRF                                   172.668
  ===> Total WRF-GC                        253.896
 max optd  1.9364301E+31
 max taucldi  8.1414647E-08
 max taucldw  9.7203483E-08
 Switching is not necessary as we are already
 in the right domain!
 GIGC_Chunk_Run: Running for in-PET grid #           1
 GIGC_Chunk_Run: Received new grid IM, JM, LM =          15           9
          49
 =================================================
 W R F - G C   T I M E R S
    Domain           1 (Units: s)
 =================================================
  => Coupler Component                       0.233
   -- Physics & Parameterization             0.059
   -- Diagnostics Out                        0.000
  => GEOS-Chem Column                       82.065
  ===> Total Chemistry                      82.297
  => WRF                                   191.157
  ===> Total WRF-GC                        273.454
 max optd  1.9364301E+31
 max taucldi  9.5177306E-08
 max taucldw  1.1512398E-07
 Switching is not necessary as we are already
 in the right domain!
 GIGC_Chunk_Run: Running for in-PET grid #           1
 GIGC_Chunk_Run: Received new grid IM, JM, LM =          15           9
          49
 =================================================
 W R F - G C   T I M E R S
    Domain           1 (Units: s)
 =================================================
  => Coupler Component                       0.268
   -- Physics & Parameterization             0.068
   -- Diagnostics Out                        0.000
  => GEOS-Chem Column                       83.074
  ===> Total Chemistry                      83.342
  => WRF                                   209.619
  ===> Total WRF-GC                        292.961
 max optd  1.9364301E+31
 max taucldi  1.0828783E-07
 max taucldw  1.3199536E-07
 Switching is not necessary as we are already
 in the right domain!
 GIGC_Chunk_Run: Running for in-PET grid #           1
 GIGC_Chunk_Run: Received new grid IM, JM, LM =          15           9
          49
 =================================================
 W R F - G C   T I M E R S
    Domain           1 (Units: s)
 =================================================
  => Coupler Component                       0.305
   -- Physics & Parameterization             0.078
   -- Diagnostics Out                        0.000
  => GEOS-Chem Column                       84.115
  ===> Total Chemistry                      84.419
  => WRF                                   228.041
  ===> Total WRF-GC                        312.460
 max optd  1.9364301E+31
 max taucldi  1.2046576E-07
 max taucldw  1.4780927E-07
 Switching is not necessary as we are already
 in the right domain!
 GIGC_Chunk_Run: Running for in-PET grid #           1
 GIGC_Chunk_Run: Received new grid IM, JM, LM =          15           9
          49
 =================================================
 W R F - G C   T I M E R S
    Domain           1 (Units: s)
 =================================================
  => Coupler Component                       0.345
   -- Physics & Parameterization             0.087
   -- Diagnostics Out                        0.000
  => GEOS-Chem Column                       85.130
  ===> Total Chemistry                      85.475
  => WRF                                   246.422
  ===> Total WRF-GC                        331.897
 max optd  1.9364301E+31
 max taucldi  1.3225456E-07
 max taucldw  1.6245363E-07
 Switching is not necessary as we are already
 in the right domain!
 GIGC_Chunk_Run: Running for in-PET grid #           1
 GIGC_Chunk_Run: Received new grid IM, JM, LM =          15           9
          49
 =================================================
 W R F - G C   T I M E R S
    Domain           1 (Units: s)
 =================================================
  => Coupler Component                       0.383
   -- Physics & Parameterization             0.096
   -- Diagnostics Out                        0.000
  => GEOS-Chem Column                       86.164
  ===> Total Chemistry                      86.547
  => WRF                                   264.896
  ===> Total WRF-GC                        351.443
 max optd  1.9364301E+31
 max taucldi  1.4376734E-07
 max taucldw  1.7595157E-07
 Switching is not necessary as we are already
 in the right domain!
 GIGC_Chunk_Run: Running for in-PET grid #           1
 GIGC_Chunk_Run: Received new grid IM, JM, LM =          15           9
          49
 =================================================
 W R F - G C   T I M E R S
    Domain           1 (Units: s)
 =================================================
  => Coupler Component                       0.423
   -- Physics & Parameterization             0.106
   -- Diagnostics Out                        0.000
  => GEOS-Chem Column                       87.207
  ===> Total Chemistry                      87.630
  => WRF                                   283.275
  ===> Total WRF-GC                        370.905
 max optd  1.9364301E+31
 max taucldi  1.5458113E-07
 max taucldw  1.9174315E-07
 Switching is not necessary as we are already
 in the right domain!
 GIGC_Chunk_Run: Running for in-PET grid #           1
 GIGC_Chunk_Run: Received new grid IM, JM, LM =          15           9
          49
 =================================================
 W R F - G C   T I M E R S
    Domain           1 (Units: s)
 =================================================
  => Coupler Component                       0.462
   -- Physics & Parameterization             0.115
   -- Diagnostics Out                        0.000
  => GEOS-Chem Column                       88.258
  ===> Total Chemistry                      88.720
  => WRF                                   301.521
  ===> Total WRF-GC                        390.241
 HOURLY EMISSIONS UPDATE TIME     3600.0       0.0
mediation_integrate: med_read_wrf_chem_emissions: Read emissions for time 2018-01-01_01:00:00
 max optd  1.9364301E+31
 max taucldi  1.6551253E-07
 max taucldw  2.0816661E-07
 Switching is not necessary as we are already
 in the right domain!
 GIGC_Chunk_Run: Running for in-PET grid #           1
 GIGC_Chunk_Run: Received new grid IM, JM, LM =          15           9
          49
 =================================================
 W R F - G C   T I M E R S
    Domain           1 (Units: s)
 =================================================
  => Coupler Component                       0.506
   -- Physics & Parameterization             0.124
   -- Diagnostics Out                        0.000
  => GEOS-Chem Column                       89.288
  ===> Total Chemistry                      89.795
  => WRF                                   319.840
  ===> Total WRF-GC                        409.635
 max optd  1.9364301E+31
 max taucldi  1.7813633E-07
 max taucldw  2.2337645E-07
 Switching is not necessary as we are already
 in the right domain!
 GIGC_Chunk_Run: Running for in-PET grid #           1
 GIGC_Chunk_Run: Received new grid IM, JM, LM =          15           9
          49
 =================================================
 W R F - G C   T I M E R S
    Domain           1 (Units: s)
 =================================================
  => Coupler Component                       0.549
   -- Physics & Parameterization             0.133
   -- Diagnostics Out                        0.000
  => GEOS-Chem Column                       90.328
  ===> Total Chemistry                      90.878
  => WRF                                   338.166
  ===> Total WRF-GC                        429.043
 max optd  1.9364301E+31
 max taucldi  1.9805297E-07
 max taucldw  2.4047441E-07
 Switching is not necessary as we are already
 in the right domain!
 GIGC_Chunk_Run: Running for in-PET grid #           1
 GIGC_Chunk_Run: Received new grid IM, JM, LM =          15           9
          49
 =================================================
 W R F - G C   T I M E R S
    Domain           1 (Units: s)
 =================================================
  => Coupler Component                       0.591
   -- Physics & Parameterization             0.143
   -- Diagnostics Out                        0.000
  => GEOS-Chem Column                       91.367
  ===> Total Chemistry                      91.958
  => WRF                                   356.362
  ===> Total WRF-GC                        448.320
 max optd  1.9364301E+31
 max taucldi  2.2067842E-07
 max taucldw  2.6232485E-07
 Switching is not necessary as we are already
 in the right domain!
 GIGC_Chunk_Run: Running for in-PET grid #           1
 GIGC_Chunk_Run: Received new grid IM, JM, LM =          15           9
          49
 =================================================
 W R F - G C   T I M E R S
    Domain           1 (Units: s)
 =================================================
  => Coupler Component                       0.632
   -- Physics & Parameterization             0.153
   -- Diagnostics Out                        0.000
  => GEOS-Chem Column                       92.407
  ===> Total Chemistry                      93.038
  => WRF                                   374.649
  ===> Total WRF-GC                        467.687
 max optd  1.9364301E+31
 max taucldi  2.4521620E-07
 max taucldw  2.7958041E-07
 Switching is not necessary as we are already
 in the right domain!
 GIGC_Chunk_Run: Running for in-PET grid #           1
 GIGC_Chunk_Run: Received new grid IM, JM, LM =          15           9
          49
 =================================================
 W R F - G C   T I M E R S
    Domain           1 (Units: s)
 =================================================
  => Coupler Component                       0.670
   -- Physics & Parameterization             0.162
   -- Diagnostics Out                        0.000
  => GEOS-Chem Column                       93.451
  ===> Total Chemistry                      94.122
  => WRF                                   392.893
  ===> Total WRF-GC                        487.015
 max optd  1.9364301E+31
 max taucldi  2.7040767E-07
 max taucldw  2.9197864E-07
 Switching is not necessary as we are already
 in the right domain!
 GIGC_Chunk_Run: Running for in-PET grid #           1
 GIGC_Chunk_Run: Received new grid IM, JM, LM =          15           9
          49
 =================================================
 W R F - G C   T I M E R S
    Domain           1 (Units: s)
 =================================================
  => Coupler Component                       0.713
   -- Physics & Parameterization             0.172
   -- Diagnostics Out                        0.000
  => GEOS-Chem Column                       94.486
  ===> Total Chemistry                      95.200
  => WRF                                   411.097
  ===> Total WRF-GC                        506.296
 max optd  1.9364301E+31
 max taucldi  2.9447963E-07
 max taucldw  3.0827582E-07
 Switching is not necessary as we are already
 in the right domain!
 GIGC_Chunk_Run: Running for in-PET grid #           1
 GIGC_Chunk_Run: Received new grid IM, JM, LM =          15           9
          49
 =================================================
 W R F - G C   T I M E R S
    Domain           1 (Units: s)
 =================================================
  => Coupler Component                       0.753
   -- Physics & Parameterization             0.181
   -- Diagnostics Out                        0.000
  => GEOS-Chem Column                       95.531
  ===> Total Chemistry                      96.284
  => WRF                                   429.356
  ===> Total WRF-GC                        525.640
 max optd  1.9364301E+31
 max taucldi  3.1723548E-07
 max taucldw  3.1826116E-07
 Switching is not necessary as we are already
 in the right domain!
 GIGC_Chunk_Run: Running for in-PET grid #           1
 GIGC_Chunk_Run: Received new grid IM, JM, LM =          15           9
          49
 =================================================
 W R F - G C   T I M E R S
    Domain           1 (Units: s)
 =================================================
  => Coupler Component                       0.796
   -- Physics & Parameterization             0.191
   -- Diagnostics Out                        0.000
  => GEOS-Chem Column                       96.570
  ===> Total Chemistry                      97.366
  => WRF                                   447.715
  ===> Total WRF-GC                        545.082
 max optd  1.9364301E+31
 max taucldi  3.3653524E-07
 max taucldw  3.2758751E-07
 Switching is not necessary as we are already
 in the right domain!
 GIGC_Chunk_Run: Running for in-PET grid #           1
 GIGC_Chunk_Run: Received new grid IM, JM, LM =          15           9
          49
 =================================================
 W R F - G C   T I M E R S
    Domain           1 (Units: s)
 =================================================
  => Coupler Component                       0.841
   -- Physics & Parameterization             0.200
   -- Diagnostics Out                        0.000
  => GEOS-Chem Column                       97.608
  ===> Total Chemistry                      98.449
  => WRF                                   465.817
  ===> Total WRF-GC                        564.267
 max optd  1.9364301E+31
 max taucldi  3.4971495E-07
 max taucldw  3.4211951E-07
 Switching is not necessary as we are already
 in the right domain!
 GIGC_Chunk_Run: Running for in-PET grid #           1
 GIGC_Chunk_Run: Received new grid IM, JM, LM =          15           9
          49
 =================================================
 W R F - G C   T I M E R S
    Domain           1 (Units: s)
 =================================================
  => Coupler Component                       0.876
   -- Physics & Parameterization             0.210
   -- Diagnostics Out                        0.000
  => GEOS-Chem Column                       98.631
  ===> Total Chemistry                      99.507
  => WRF                                   484.045
  ===> Total WRF-GC                        583.552
 max optd  1.9364301E+31
 max taucldi  3.5808088E-07
 max taucldw  3.5087237E-07
 Switching is not necessary as we are already
 in the right domain!
 GIGC_Chunk_Run: Running for in-PET grid #           1
 GIGC_Chunk_Run: Received new grid IM, JM, LM =          15           9
          49
 =================================================
 W R F - G C   T I M E R S
    Domain           1 (Units: s)
 =================================================
  => Coupler Component                       0.921
   -- Physics & Parameterization             0.219
   -- Diagnostics Out                        0.000
  => GEOS-Chem Column                       99.656
  ===> Total Chemistry                     100.577
  => WRF                                   502.334
  ===> Total WRF-GC                        602.911
 max optd  1.9364301E+31
 max taucldi  3.8073316E-07
 max taucldw  3.6242832E-07
 Switching is not necessary as we are already
 in the right domain!
 GIGC_Chunk_Run: Running for in-PET grid #           1
 GIGC_Chunk_Run: Received new grid IM, JM, LM =          15           9
          49
 =================================================
 W R F - G C   T I M E R S
    Domain           1 (Units: s)
 =================================================
  => Coupler Component                       0.958
   -- Physics & Parameterization             0.229
   -- Diagnostics Out                        0.000
  => GEOS-Chem Column                      100.685
  ===> Total Chemistry                     101.643
  => WRF                                   520.558
  ===> Total WRF-GC                        622.202
 HOURLY EMISSIONS UPDATE TIME     7200.0       0.0
mediation_integrate: med_read_wrf_chem_emissions: Read emissions for time 2018-01-01_02:00:00
 max optd  1.9364301E+31
 max taucldi  3.9957075E-07
 max taucldw  3.7759236E-07
 Switching is not necessary as we are already
 in the right domain!
 GIGC_Chunk_Run: Running for in-PET grid #           1
 GIGC_Chunk_Run: Received new grid IM, JM, LM =          15           9
          49
 =================================================
 W R F - G C   T I M E R S
    Domain           1 (Units: s)
 =================================================
  => Coupler Component                       1.002
   -- Physics & Parameterization             0.238
   -- Diagnostics Out                        0.000
  => GEOS-Chem Column                      101.715
  ===> Total Chemistry                     102.717
  => WRF                                   538.761
  ===> Total WRF-GC                        641.478
 max optd  1.9364301E+31
 max taucldi  4.1379448E-07
 max taucldw  3.8938845E-07
 Switching is not necessary as we are already
 in the right domain!
 GIGC_Chunk_Run: Running for in-PET grid #           1
 GIGC_Chunk_Run: Received new grid IM, JM, LM =          15           9
          49
 =================================================
 W R F - G C   T I M E R S
    Domain           1 (Units: s)
 =================================================
  => Coupler Component                       1.044
   -- Physics & Parameterization             0.247
   -- Diagnostics Out                        0.000
  => GEOS-Chem Column                      102.758
  ===> Total Chemistry                     103.802
  => WRF                                   556.997
  ===> Total WRF-GC                        660.800
 max optd  1.9364301E+31
 max taucldi  4.2352636E-07
 max taucldw  3.9691938E-07
 Switching is not necessary as we are already
 in the right domain!
 GIGC_Chunk_Run: Running for in-PET grid #           1
 GIGC_Chunk_Run: Received new grid IM, JM, LM =          15           9
          49
 =================================================
 W R F - G C   T I M E R S
    Domain           1 (Units: s)
 =================================================
  => Coupler Component                       1.092
   -- Physics & Parameterization             0.256
   -- Diagnostics Out                        0.000
  => GEOS-Chem Column                      103.791
  ===> Total Chemistry                     104.883
  => WRF                                   575.128
  ===> Total WRF-GC                        680.010
 max optd  1.9364301E+31
 max taucldi  5.9871240E-05
 max taucldw  4.0056341E-07
 Switching is not necessary as we are already
 in the right domain!
 GIGC_Chunk_Run: Running for in-PET grid #           1
 GIGC_Chunk_Run: Received new grid IM, JM, LM =          15           9
          49
 =================================================
 W R F - G C   T I M E R S
    Domain           1 (Units: s)
 =================================================
  => Coupler Component                       1.134
   -- Physics & Parameterization             0.266
   -- Diagnostics Out                        0.000
  => GEOS-Chem Column                      104.835
  ===> Total Chemistry                     105.969
  => WRF                                   593.245
  ===> Total WRF-GC                        699.214
 max optd  1.9364301E+31
 max taucldi  1.4420034E-03
 max taucldw  4.1164387E-07
 Switching is not necessary as we are already
 in the right domain!
 GIGC_Chunk_Run: Running for in-PET grid #           1
 GIGC_Chunk_Run: Received new grid IM, JM, LM =          15           9
          49
 =================================================
 W R F - G C   T I M E R S
    Domain           1 (Units: s)
 =================================================
  => Coupler Component                       1.178
   -- Physics & Parameterization             0.275
   -- Diagnostics Out                        0.000
  => GEOS-Chem Column                      105.875
  ===> Total Chemistry                     107.054
  => WRF                                   611.393
  ===> Total WRF-GC                        718.447
 max optd  1.9364301E+31
 max taucldi  3.7339206E-03
 max taucldw  4.2441400E-07
 Switching is not necessary as we are already
 in the right domain!
 GIGC_Chunk_Run: Running for in-PET grid #           1
 GIGC_Chunk_Run: Received new grid IM, JM, LM =          15           9
          49
 =================================================
 W R F - G C   T I M E R S
    Domain           1 (Units: s)
 =================================================
  => Coupler Component                       1.222
   -- Physics & Parameterization             0.285
   -- Diagnostics Out                        0.000
  => GEOS-Chem Column                      106.913
  ===> Total Chemistry                     108.135
  => WRF                                   629.538
  ===> Total WRF-GC                        737.672
 max optd  1.9364301E+31
 max taucldi  5.1583974E-03
 max taucldw  4.3609509E-07
 Switching is not necessary as we are already
 in the right domain!
 GIGC_Chunk_Run: Running for in-PET grid #           1
 GIGC_Chunk_Run: Received new grid IM, JM, LM =          15           9
          49
 =================================================
 W R F - G C   T I M E R S
    Domain           1 (Units: s)
 =================================================
  => Coupler Component                       1.263
   -- Physics & Parameterization             0.294
   -- Diagnostics Out                        0.000
  => GEOS-Chem Column                      107.958
  ===> Total Chemistry                     109.220
  => WRF                                   647.694
  ===> Total WRF-GC                        756.915
 max optd  1.9364301E+31
 max taucldi  5.7548615E-03
 max taucldw  4.4658000E-07
 Switching is not necessary as we are already
 in the right domain!
 GIGC_Chunk_Run: Running for in-PET grid #           1
 GIGC_Chunk_Run: Received new grid IM, JM, LM =          15           9
          49
 =================================================
 W R F - G C   T I M E R S
    Domain           1 (Units: s)
 =================================================
  => Coupler Component                       1.305
   -- Physics & Parameterization             0.304
   -- Diagnostics Out                        0.000
  => GEOS-Chem Column                      108.999
  ===> Total Chemistry                     110.304
  => WRF                                   665.784
  ===> Total WRF-GC                        776.087
 max optd  1.9364301E+31
 max taucldi  6.1334739E-03
 max taucldw  4.5561632E-07
 Switching is not necessary as we are already
 in the right domain!
 GIGC_Chunk_Run: Running for in-PET grid #           1
 GIGC_Chunk_Run: Received new grid IM, JM, LM =          15           9
          49
 =================================================
 W R F - G C   T I M E R S
    Domain           1 (Units: s)
 =================================================
  => Coupler Component                       1.344
   -- Physics & Parameterization             0.313
   -- Diagnostics Out                        0.000
  => GEOS-Chem Column                      110.058
  ===> Total Chemistry                     111.402
  => WRF                                   683.881
  ===> Total WRF-GC                        795.283
 max optd  1.9364301E+31
 max taucldi  6.5258611E-03
 max taucldw  4.6610384E-07
 Switching is not necessary as we are already
 in the right domain!
 GIGC_Chunk_Run: Running for in-PET grid #           1
 GIGC_Chunk_Run: Received new grid IM, JM, LM =          15           9
          49
 =================================================
 W R F - G C   T I M E R S
    Domain           1 (Units: s)
 =================================================
  => Coupler Component                       1.386
   -- Physics & Parameterization             0.323
   -- Diagnostics Out                        0.000
  => GEOS-Chem Column                      111.094
  ===> Total Chemistry                     112.480
  => WRF                                   702.034
  ===> Total WRF-GC                        814.513
 max optd  1.9364301E+31
 max taucldi  6.8272199E-03
 max taucldw  4.7503414E-07
 Switching is not necessary as we are already
 in the right domain!
 GIGC_Chunk_Run: Running for in-PET grid #           1
 GIGC_Chunk_Run: Received new grid IM, JM, LM =          15           9
          49
 =================================================
 W R F - G C   T I M E R S
    Domain           1 (Units: s)
 =================================================
  => Coupler Component                       1.426
   -- Physics & Parameterization             0.332
   -- Diagnostics Out                        0.000
  => GEOS-Chem Column                      112.146
  ===> Total Chemistry                     113.571
  => WRF                                   720.104
  ===> Total WRF-GC                        833.675
 max optd  1.9364301E+31
 max taucldi  7.0583816E-03
 max taucldw  4.8218965E-07
 Switching is not necessary as we are already
 in the right domain!
 GIGC_Chunk_Run: Running for in-PET grid #           1
 GIGC_Chunk_Run: Received new grid IM, JM, LM =          15           9
          49
 =================================================
 W R F - G C   T I M E R S
    Domain           1 (Units: s)
 =================================================
  => Coupler Component                       1.464
   -- Physics & Parameterization             0.342
   -- Diagnostics Out                        0.000
  => GEOS-Chem Column                      113.201
  ===> Total Chemistry                     114.665
  => WRF                                   738.178
  ===> Total WRF-GC                        852.843
 HOURLY EMISSIONS UPDATE TIME    10800.0       0.0
mediation_integrate: med_read_wrf_chem_emissions: Read emissions for time 2018-01-01_03:00:00
 max optd  1.9364301E+31
 max taucldi  7.1691438E-03
 max taucldw  4.8758369E-07
 Switching is not necessary as we are already
 in the right domain!
 GIGC_Chunk_Run: Running for in-PET grid #           1
 GIGC_Chunk_Run: Received new grid IM, JM, LM =          15           9
          49
 =================================================
 W R F - G C   T I M E R S
    Domain           1 (Units: s)
 =================================================
  => Coupler Component                       1.504
   -- Physics & Parameterization             0.351
   -- Diagnostics Out                        0.000
  => GEOS-Chem Column                      114.250
  ===> Total Chemistry                     115.754
  => WRF                                   756.306
  ===> Total WRF-GC                        872.060
 max optd  1.9364301E+31
 max taucldi  7.1985330E-03
 max taucldw  4.9121934E-07
 Switching is not necessary as we are already
 in the right domain!
 GIGC_Chunk_Run: Running for in-PET grid #           1
 GIGC_Chunk_Run: Received new grid IM, JM, LM =          15           9
          49
 =================================================
 W R F - G C   T I M E R S
    Domain           1 (Units: s)
 =================================================
  => Coupler Component                       1.542
   -- Physics & Parameterization             0.361
   -- Diagnostics Out                        0.000
  => GEOS-Chem Column                      115.302
  ===> Total Chemistry                     116.844
  => WRF                                   774.397
  ===> Total WRF-GC                        891.241
 max optd  1.9364301E+31
 max taucldi  7.1922089E-03
 max taucldw  4.9323376E-07
 Switching is not necessary as we are already
 in the right domain!
 GIGC_Chunk_Run: Running for in-PET grid #           1
 GIGC_Chunk_Run: Received new grid IM, JM, LM =          15           9
          49
 =================================================
 W R F - G C   T I M E R S
    Domain           1 (Units: s)
 =================================================
  => Coupler Component                       1.582
   -- Physics & Parameterization             0.370
   -- Diagnostics Out                        0.000
  => GEOS-Chem Column                      116.349
  ===> Total Chemistry                     117.931
  => WRF                                   792.501
  ===> Total WRF-GC                        910.432
 max optd  1.9364301E+31
 max taucldi  7.2161257E-03
 max taucldw  4.9391593E-07
 Switching is not necessary as we are already
 in the right domain!
 GIGC_Chunk_Run: Running for in-PET grid #           1
 GIGC_Chunk_Run: Received new grid IM, JM, LM =          15           9
          49
 =================================================
 W R F - G C   T I M E R S
    Domain           1 (Units: s)
 =================================================
  => Coupler Component                       1.621
   -- Physics & Parameterization             0.380
   -- Diagnostics Out                        0.000
  => GEOS-Chem Column                      117.404
  ===> Total Chemistry                     119.024
  => WRF                                   810.600
  ===> Total WRF-GC                        929.625
 max optd  1.9364301E+31
 max taucldi  7.3029296E-03
 max taucldw  4.9379094E-07
 Switching is not necessary as we are already
 in the right domain!
 GIGC_Chunk_Run: Running for in-PET grid #           1
 GIGC_Chunk_Run: Received new grid IM, JM, LM =          15           9
          49
 =================================================
 W R F - G C   T I M E R S
    Domain           1 (Units: s)
 =================================================
  => Coupler Component                       1.659
   -- Physics & Parameterization             0.389
   -- Diagnostics Out                        0.000
  => GEOS-Chem Column                      118.461
  ===> Total Chemistry                     120.119
  => WRF                                   828.663
  ===> Total WRF-GC                        948.782
 max optd  1.9364301E+31
 max taucldi  7.3430119E-03
 max taucldw  4.9324001E-07
 Switching is not necessary as we are already
 in the right domain!
 GIGC_Chunk_Run: Running for in-PET grid #           1
 GIGC_Chunk_Run: Received new grid IM, JM, LM =          15           9
          49
 =================================================
 W R F - G C   T I M E R S
    Domain           1 (Units: s)
 =================================================
  => Coupler Component                       1.702
   -- Physics & Parameterization             0.399
   -- Diagnostics Out                        0.000
  => GEOS-Chem Column                      119.507
  ===> Total Chemistry                     121.210
  => WRF                                   847.007
  ===> Total WRF-GC                        968.216
 max optd  1.9364301E+31
 max taucldi  7.5557404E-03
 max taucldw  4.9249121E-07
 Switching is not necessary as we are already
 in the right domain!
 GIGC_Chunk_Run: Running for in-PET grid #           1
 GIGC_Chunk_Run: Received new grid IM, JM, LM =          15           9
          49
 =================================================
 W R F - G C   T I M E R S
    Domain           1 (Units: s)
 =================================================
  => Coupler Component                       1.741
   -- Physics & Parameterization             0.408
   -- Diagnostics Out                        0.000
  => GEOS-Chem Column                      120.563
  ===> Total Chemistry                     122.304
  => WRF                                   865.179
  ===> Total WRF-GC                        987.483
 max optd  1.9364301E+31
 max taucldi  7.6400540E-03
 max taucldw  4.9156318E-07
 Switching is not necessary as we are already
 in the right domain!
 GIGC_Chunk_Run: Running for in-PET grid #           1
 GIGC_Chunk_Run: Received new grid IM, JM, LM =          15           9
          49
 =================================================
 W R F - G C   T I M E R S
    Domain           1 (Units: s)
 =================================================
  => Coupler Component                       1.783
   -- Physics & Parameterization             0.418
   -- Diagnostics Out                        0.000
  => GEOS-Chem Column                      121.605
  ===> Total Chemistry                     123.388
  => WRF                                   883.190
  ===> Total WRF-GC                       1006.578
 max optd  1.9364301E+31
 max taucldi  7.6573323E-03
 max taucldw  4.9812593E-07
 Switching is not necessary as we are already
 in the right domain!
 GIGC_Chunk_Run: Running for in-PET grid #           1
 GIGC_Chunk_Run: Received new grid IM, JM, LM =          15           9
          49
 =================================================
 W R F - G C   T I M E R S
    Domain           1 (Units: s)
 =================================================
  => Coupler Component                       1.821
   -- Physics & Parameterization             0.427
   -- Diagnostics Out                        0.000
  => GEOS-Chem Column                      122.661
  ===> Total Chemistry                     124.481
  => WRF                                   901.435
  ===> Total WRF-GC                       1025.916
 max optd  1.9364301E+31
 max taucldi  7.6033385E-03
 max taucldw  5.0689579E-07
 Switching is not necessary as we are already
 in the right domain!
 GIGC_Chunk_Run: Running for in-PET grid #           1
 GIGC_Chunk_Run: Received new grid IM, JM, LM =          15           9
          49
 =================================================
 W R F - G C   T I M E R S
    Domain           1 (Units: s)
 =================================================
  => Coupler Component                       1.868
   -- Physics & Parameterization             0.437
   -- Diagnostics Out                        0.000
  => GEOS-Chem Column                      123.686
  ===> Total Chemistry                     125.554
  => WRF                                   919.567
  ===> Total WRF-GC                       1045.121
 max optd  1.9364301E+31
 max taucldi  7.6307920E-03
 max taucldw  5.1448353E-07
 Switching is not necessary as we are already
 in the right domain!
 GIGC_Chunk_Run: Running for in-PET grid #           1
 GIGC_Chunk_Run: Received new grid IM, JM, LM =          15           9
          49
 =================================================
 W R F - G C   T I M E R S
    Domain           1 (Units: s)
 =================================================
  => Coupler Component                       1.906
   -- Physics & Parameterization             0.446
   -- Diagnostics Out                        0.000
  => GEOS-Chem Column                      124.742
  ===> Total Chemistry                     126.648
  => WRF                                   937.683
  ===> Total WRF-GC                       1064.331
 max optd  1.9364301E+31
 max taucldi  7.5755892E-03
 max taucldw  5.2058766E-07
 Switching is not necessary as we are already
 in the right domain!
 GIGC_Chunk_Run: Running for in-PET grid #           1
 GIGC_Chunk_Run: Received new grid IM, JM, LM =          15           9
          49
 =================================================
 W R F - G C   T I M E R S
    Domain           1 (Units: s)
 =================================================
  => Coupler Component                       1.946
   -- Physics & Parameterization             0.456
   -- Diagnostics Out                        0.000
  => GEOS-Chem Column                      125.789
  ===> Total Chemistry                     127.734
  => WRF                                   955.827
  ===> Total WRF-GC                       1083.561
 HOURLY EMISSIONS UPDATE TIME    14400.0       0.0
mediation_integrate: med_read_wrf_chem_emissions: Read emissions for time 2018-01-01_04:00:00
 max optd  1.9364301E+31
 max taucldi  7.4758437E-03
 max taucldw  5.2521523E-07
 Switching is not necessary as we are already
 in the right domain!
 GIGC_Chunk_Run: Running for in-PET grid #           1
 GIGC_Chunk_Run: Received new grid IM, JM, LM =          15           9
          49
 =================================================
 W R F - G C   T I M E R S
    Domain           1 (Units: s)
 =================================================
  => Coupler Component                       1.986
   -- Physics & Parameterization             0.465
   -- Diagnostics Out                        0.000
  => GEOS-Chem Column                      126.847
  ===> Total Chemistry                     128.833
  => WRF                                   973.968
  ===> Total WRF-GC                       1102.801
 max optd  1.9364301E+31
 max taucldi  7.5959484E-03
 max taucldw  5.2898383E-07
 Switching is not necessary as we are already
 in the right domain!
 GIGC_Chunk_Run: Running for in-PET grid #           1
 GIGC_Chunk_Run: Received new grid IM, JM, LM =          15           9
          49
 =================================================
 W R F - G C   T I M E R S
    Domain           1 (Units: s)
 =================================================
  => Coupler Component                       2.027
   -- Physics & Parameterization             0.475
   -- Diagnostics Out                        0.000
  => GEOS-Chem Column                      127.900
  ===> Total Chemistry                     129.928
  => WRF                                   992.101
  ===> Total WRF-GC                       1122.029
 max optd  1.9364301E+31
 max taucldi  7.6293019E-03
 max taucldw  5.3448969E-07
 Switching is not necessary as we are already
 in the right domain!
 GIGC_Chunk_Run: Running for in-PET grid #           1
 GIGC_Chunk_Run: Received new grid IM, JM, LM =          15           9
          49
 =================================================
 W R F - G C   T I M E R S
    Domain           1 (Units: s)
 =================================================
  => Coupler Component                       2.071
   -- Physics & Parameterization             0.485
   -- Diagnostics Out                        0.000
  => GEOS-Chem Column                      128.945
  ===> Total Chemistry                     131.017
  => WRF                                  1010.316
  ===> Total WRF-GC                       1141.333
 max optd  1.9364301E+31
 max taucldi  7.6944889E-03
 max taucldw  5.4012889E-07
 Switching is not necessary as we are already
 in the right domain!
 GIGC_Chunk_Run: Running for in-PET grid #           1
 GIGC_Chunk_Run: Received new grid IM, JM, LM =          15           9
          49
 =================================================
 W R F - G C   T I M E R S
    Domain           1 (Units: s)
 =================================================
  => Coupler Component                       2.112
   -- Physics & Parameterization             0.494
   -- Diagnostics Out                        0.000
  => GEOS-Chem Column                      129.992
  ===> Total Chemistry                     132.104
  => WRF                                  1028.431
  ===> Total WRF-GC                       1160.536
 max optd  1.9364301E+31
 max taucldi  7.8276321E-03
 max taucldw  5.4598036E-07
 Switching is not necessary as we are already
 in the right domain!
 GIGC_Chunk_Run: Running for in-PET grid #           1
 GIGC_Chunk_Run: Received new grid IM, JM, LM =          15           9
          49
 =================================================
 W R F - G C   T I M E R S
    Domain           1 (Units: s)
 =================================================
  => Coupler Component                       2.151
   -- Physics & Parameterization             0.504
   -- Diagnostics Out                        0.000
  => GEOS-Chem Column                      131.049
  ===> Total Chemistry                     133.200
  => WRF                                  1046.584
  ===> Total WRF-GC                       1179.784
 max optd  1.9364301E+31
 max taucldi  7.9445643E-03
 max taucldw  5.5209597E-07
 Switching is not necessary as we are already
 in the right domain!
 GIGC_Chunk_Run: Running for in-PET grid #           1
 GIGC_Chunk_Run: Received new grid IM, JM, LM =          15           9
          49
 =================================================
 W R F - G C   T I M E R S
    Domain           1 (Units: s)
 =================================================
  => Coupler Component                       2.187
   -- Physics & Parameterization             0.513
   -- Diagnostics Out                        0.000
  => GEOS-Chem Column                      132.110
  ===> Total Chemistry                     134.297
  => WRF                                  1064.732
  ===> Total WRF-GC                       1199.029
 max optd  1.9364301E+31
 max taucldi  7.9181837E-03
 max taucldw  5.5853246E-07
 Switching is not necessary as we are already
 in the right domain!
 GIGC_Chunk_Run: Running for in-PET grid #           1
 GIGC_Chunk_Run: Received new grid IM, JM, LM =          15           9
          49
 =================================================
 W R F - G C   T I M E R S
    Domain           1 (Units: s)
 =================================================
  => Coupler Component                       2.231
   -- Physics & Parameterization             0.523
   -- Diagnostics Out                        0.000
  => GEOS-Chem Column                      133.152
  ===> Total Chemistry                     135.383
  => WRF                                  1082.913
  ===> Total WRF-GC                       1218.296
 max optd  1.9364301E+31
 max taucldi  7.8535443E-03
 max taucldw  5.6527068E-07
 Switching is not necessary as we are already
 in the right domain!
 GIGC_Chunk_Run: Running for in-PET grid #           1
 GIGC_Chunk_Run: Received new grid IM, JM, LM =          15           9
          49
 =================================================
 W R F - G C   T I M E R S
    Domain           1 (Units: s)
 =================================================
  => Coupler Component                       2.272
   -- Physics & Parameterization             0.532
   -- Diagnostics Out                        0.000
  => GEOS-Chem Column                      134.208
  ===> Total Chemistry                     136.480
  => WRF                                  1101.025
  ===> Total WRF-GC                       1237.506
 max optd  1.9364301E+31
 max taucldi  7.8154933E-03
 max taucldw  5.7225492E-07
 Switching is not necessary as we are already
 in the right domain!
 GIGC_Chunk_Run: Running for in-PET grid #           1
 GIGC_Chunk_Run: Received new grid IM, JM, LM =          15           9
          49
 =================================================
 W R F - G C   T I M E R S
    Domain           1 (Units: s)
 =================================================
  => Coupler Component                       2.311
   -- Physics & Parameterization             0.542
   -- Diagnostics Out                        0.000
  => GEOS-Chem Column                      135.264
  ===> Total Chemistry                     137.575
  => WRF                                  1119.166
  ===> Total WRF-GC                       1256.741
 max optd  1.9364301E+31
 max taucldi  7.7467212E-03
 max taucldw  5.7949916E-07
 Switching is not necessary as we are already
 in the right domain!
 GIGC_Chunk_Run: Running for in-PET grid #           1
 GIGC_Chunk_Run: Received new grid IM, JM, LM =          15           9
          49
 =================================================
 W R F - G C   T I M E R S
    Domain           1 (Units: s)
 =================================================
  => Coupler Component                       2.348
   -- Physics & Parameterization             0.552
   -- Diagnostics Out                        0.000
  => GEOS-Chem Column                      136.322
  ===> Total Chemistry                     138.670
  => WRF                                  1137.286
  ===> Total WRF-GC                       1275.956
 max optd  1.9364301E+31
 max taucldi  7.6307189E-03
 max taucldw  5.8696077E-07
 Switching is not necessary as we are already
 in the right domain!
 GIGC_Chunk_Run: Running for in-PET grid #           1
 GIGC_Chunk_Run: Received new grid IM, JM, LM =          15           9
          49
 =================================================
 W R F - G C   T I M E R S
    Domain           1 (Units: s)
 =================================================
  => Coupler Component                       2.389
   -- Physics & Parameterization             0.561
   -- Diagnostics Out                        0.000
  => GEOS-Chem Column                      137.360
  ===> Total Chemistry                     139.749
  => WRF                                  1155.372
  ===> Total WRF-GC                       1295.121
 max optd  1.9364301E+31
 max taucldi  7.3015154E-03
 max taucldw  5.9469573E-07
 Switching is not necessary as we are already
 in the right domain!
 GIGC_Chunk_Run: Running for in-PET grid #           1
 GIGC_Chunk_Run: Received new grid IM, JM, LM =          15           9
          49
 =================================================
 W R F - G C   T I M E R S
    Domain           1 (Units: s)
 =================================================
  => Coupler Component                       2.429
   -- Physics & Parameterization             0.571
   -- Diagnostics Out                        0.000
  => GEOS-Chem Column                      138.419
  ===> Total Chemistry                     140.848
  => WRF                                  1173.448
  ===> Total WRF-GC                       1314.296
 HOURLY EMISSIONS UPDATE TIME    18000.0       0.0
mediation_integrate: med_read_wrf_chem_emissions: Read emissions for time 2018-01-01_05:00:00
 max optd  1.9364301E+31
 max taucldi  7.1788877E-03
 max taucldw  6.0271816E-07
 Switching is not necessary as we are already
 in the right domain!
 GIGC_Chunk_Run: Running for in-PET grid #           1
 GIGC_Chunk_Run: Received new grid IM, JM, LM =          15           9
          49
 =================================================
 W R F - G C   T I M E R S
    Domain           1 (Units: s)
 =================================================
  => Coupler Component                       2.468
   -- Physics & Parameterization             0.581
   -- Diagnostics Out                        0.000
  => GEOS-Chem Column                      139.468
  ===> Total Chemistry                     141.936
  => WRF                                  1191.607
  ===> Total WRF-GC                       1333.543
 max optd  1.9364301E+31
 max taucldi  7.1249665E-03
 max taucldw  6.1109455E-07
 Switching is not necessary as we are already
 in the right domain!
 GIGC_Chunk_Run: Running for in-PET grid #           1
 GIGC_Chunk_Run: Received new grid IM, JM, LM =          15           9
          49
 =================================================
 W R F - G C   T I M E R S
    Domain           1 (Units: s)
 =================================================
  => Coupler Component                       2.506
   -- Physics & Parameterization             0.590
   -- Diagnostics Out                        0.000
  => GEOS-Chem Column                      140.536
  ===> Total Chemistry                     143.042
  => WRF                                  1209.706
  ===> Total WRF-GC                       1352.747
 max optd  1.9364301E+31
 max taucldi  7.0913495E-03
 max taucldw  6.1978062E-07
 Switching is not necessary as we are already
 in the right domain!
 GIGC_Chunk_Run: Running for in-PET grid #           1
 GIGC_Chunk_Run: Received new grid IM, JM, LM =          15           9
          49
 =================================================
 W R F - G C   T I M E R S
    Domain           1 (Units: s)
 =================================================
  => Coupler Component                       2.550
   -- Physics & Parameterization             0.600
   -- Diagnostics Out                        0.000
  => GEOS-Chem Column                      141.575
  ===> Total Chemistry                     144.126
  => WRF                                  1227.801
  ===> Total WRF-GC                       1371.927
 max optd  1.9364301E+31
 max taucldi  7.0424718E-03
 max taucldw  6.2878411E-07
 Switching is not necessary as we are already
 in the right domain!
 GIGC_Chunk_Run: Running for in-PET grid #           1
 GIGC_Chunk_Run: Received new grid IM, JM, LM =          15           9
          49
 =================================================
 W R F - G C   T I M E R S
    Domain           1 (Units: s)
 =================================================
  => Coupler Component                       2.594
   -- Physics & Parameterization             0.609
   -- Diagnostics Out                        0.000
  => GEOS-Chem Column                      142.624
  ===> Total Chemistry                     145.217
  => WRF                                  1245.939
  ===> Total WRF-GC                       1391.156
 max optd  1.9364301E+31
 max taucldi  7.1351533E-03
 max taucldw  6.3781545E-07
 Switching is not necessary as we are already
 in the right domain!
 GIGC_Chunk_Run: Running for in-PET grid #           1
 GIGC_Chunk_Run: Received new grid IM, JM, LM =          15           9
          49
 =================================================
 W R F - G C   T I M E R S
    Domain           1 (Units: s)
 =================================================
  => Coupler Component                       2.634
   -- Physics & Parameterization             0.619
   -- Diagnostics Out                        0.000
  => GEOS-Chem Column                      143.668
  ===> Total Chemistry                     146.302
  => WRF                                  1264.119
  ===> Total WRF-GC                       1410.422
 max optd  1.9364301E+31
 max taucldi  7.3807179E-03
 max taucldw  6.4671133E-07
 Switching is not necessary as we are already
 in the right domain!
 GIGC_Chunk_Run: Running for in-PET grid #           1
 GIGC_Chunk_Run: Received new grid IM, JM, LM =          15           9
          49
 =================================================
 W R F - G C   T I M E R S
    Domain           1 (Units: s)
 =================================================
  => Coupler Component                       2.671
   -- Physics & Parameterization             0.628
   -- Diagnostics Out                        0.000
  => GEOS-Chem Column                      144.731
  ===> Total Chemistry                     147.402
  => WRF                                  1282.207
  ===> Total WRF-GC                       1429.610
 max optd  1.9364301E+31
 max taucldi  7.4855560E-03
 max taucldw  6.5557714E-07
 Switching is not necessary as we are already
 in the right domain!
 GIGC_Chunk_Run: Running for in-PET grid #           1
 GIGC_Chunk_Run: Received new grid IM, JM, LM =          15           9
          49
 =================================================
 W R F - G C   T I M E R S
    Domain           1 (Units: s)
 =================================================
  => Coupler Component                       2.715
   -- Physics & Parameterization             0.638
   -- Diagnostics Out                        0.000
  => GEOS-Chem Column                      145.775
  ===> Total Chemistry                     148.490
  => WRF                                  1300.402
  ===> Total WRF-GC                       1448.891
 max optd  1.9364301E+31
 max taucldi  7.4617555E-03
 max taucldw  6.6446279E-07
 Switching is not necessary as we are already
 in the right domain!
 GIGC_Chunk_Run: Running for in-PET grid #           1
 GIGC_Chunk_Run: Received new grid IM, JM, LM =          15           9
          49
 =================================================
 W R F - G C   T I M E R S
    Domain           1 (Units: s)
 =================================================
  => Coupler Component                       2.753
   -- Physics & Parameterization             0.648
   -- Diagnostics Out                        0.000
  => GEOS-Chem Column                      146.826
  ===> Total Chemistry                     149.580
  => WRF                                  1318.509
  ===> Total WRF-GC                       1468.088
 max optd  1.9364301E+31
 max taucldi  7.4088536E-03
 max taucldw  6.7320764E-07
 Switching is not necessary as we are already
 in the right domain!
 GIGC_Chunk_Run: Running for in-PET grid #           1
 GIGC_Chunk_Run: Received new grid IM, JM, LM =          15           9
          49
 =================================================
 W R F - G C   T I M E R S
    Domain           1 (Units: s)
 =================================================
  => Coupler Component                       2.791
   -- Physics & Parameterization             0.657
   -- Diagnostics Out                        0.000
  => GEOS-Chem Column                      147.886
  ===> Total Chemistry                     150.677
  => WRF                                  1336.680
  ===> Total WRF-GC                       1487.357
 max optd  1.9364301E+31
 max taucldi  7.3728887E-03
 max taucldw  6.8147938E-07
 Switching is not necessary as we are already
 in the right domain!
 GIGC_Chunk_Run: Running for in-PET grid #           1
 GIGC_Chunk_Run: Received new grid IM, JM, LM =          15           9
          49
 =================================================
 W R F - G C   T I M E R S
    Domain           1 (Units: s)
 =================================================
  => Coupler Component                       2.831
   -- Physics & Parameterization             0.666
   -- Diagnostics Out                        0.000
  => GEOS-Chem Column                      148.945
  ===> Total Chemistry                     151.776
  => WRF                                  1355.080
  ===> Total WRF-GC                       1506.856
 max optd  1.9364301E+31
 max taucldi  7.3338407E-03
 max taucldw  6.8911913E-07
 Switching is not necessary as we are already
 in the right domain!
 GIGC_Chunk_Run: Running for in-PET grid #           1
 GIGC_Chunk_Run: Received new grid IM, JM, LM =          15           9
          49
 =================================================
 W R F - G C   T I M E R S
    Domain           1 (Units: s)
 =================================================
  => Coupler Component                       2.874
   -- Physics & Parameterization             0.676
   -- Diagnostics Out                        0.000
  => GEOS-Chem Column                      149.983
  ===> Total Chemistry                     152.857
  => WRF                                  1373.195
  ===> Total WRF-GC                       1526.052
 max optd  1.9364301E+31
 max taucldi  7.2500994E-03
 max taucldw  6.9603919E-07
 Switching is not necessary as we are already
 in the right domain!
 GIGC_Chunk_Run: Running for in-PET grid #           1
 GIGC_Chunk_Run: Received new grid IM, JM, LM =          15           9
          49
 =================================================
 W R F - G C   T I M E R S
    Domain           1 (Units: s)
 =================================================
  => Coupler Component                       2.915
   -- Physics & Parameterization             0.686
   -- Diagnostics Out                        0.000
  => GEOS-Chem Column                      151.028
  ===> Total Chemistry                     153.943
  => WRF                                  1391.335
  ===> Total WRF-GC                       1545.278
 HOURLY EMISSIONS UPDATE TIME    21600.0       0.0
mediation_integrate: med_read_wrf_chem_emissions: Read emissions for time 2018-01-01_06:00:00
 max optd  1.9364301E+31
 max taucldi  7.0407833E-03
 max taucldw  7.0229839E-07
 Switching is not necessary as we are already
 in the right domain!
 GIGC_Chunk_Run: Running for in-PET grid #           1
 GIGC_Chunk_Run: Received new grid IM, JM, LM =          15           9
          49
 =================================================
 W R F - G C   T I M E R S
    Domain           1 (Units: s)
 =================================================
  => Coupler Component                       2.954
   -- Physics & Parameterization             0.695
   -- Diagnostics Out                        0.000
  => GEOS-Chem Column                      152.085
  ===> Total Chemistry                     155.039
  => WRF                                  1850.007
  ===> Total WRF-GC                       2005.047
 max optd  1.9364301E+31
 max taucldi  6.8537113E-03
 max taucldw  7.0824444E-07
 Switching is not necessary as we are already
 in the right domain!
 GIGC_Chunk_Run: Running for in-PET grid #           1
 GIGC_Chunk_Run: Received new grid IM, JM, LM =          15           9
          49
 =================================================
 W R F - G C   T I M E R S
    Domain           1 (Units: s)
 =================================================
  => Coupler Component                       2.997
   -- Physics & Parameterization             0.705
   -- Diagnostics Out                        0.000
  => GEOS-Chem Column                      153.130
  ===> Total Chemistry                     156.128
  => WRF                                  1868.142
  ===> Total WRF-GC                       2024.270
 max optd  1.9364301E+31
 max taucldi  6.6897152E-03
 max taucldw  7.1396835E-07
 Switching is not necessary as we are already
 in the right domain!
 GIGC_Chunk_Run: Running for in-PET grid #           1
 GIGC_Chunk_Run: Received new grid IM, JM, LM =          15           9
          49
 =================================================
 W R F - G C   T I M E R S
    Domain           1 (Units: s)
 =================================================
  => Coupler Component                       3.039
   -- Physics & Parameterization             0.714
   -- Diagnostics Out                        0.000
  => GEOS-Chem Column                      154.183
  ===> Total Chemistry                     157.222
  => WRF                                  1886.431
  ===> Total WRF-GC                       2043.653
 max optd  1.9364301E+31
 max taucldi  6.4623333E-03
 max taucldw  7.1966394E-07
 Switching is not necessary as we are already
 in the right domain!
 GIGC_Chunk_Run: Running for in-PET grid #           1
 GIGC_Chunk_Run: Received new grid IM, JM, LM =          15           9
          49
 =================================================
 W R F - G C   T I M E R S
    Domain           1 (Units: s)
 =================================================
  => Coupler Component                       3.079
[...]
  => GEOS-Chem Column                      201.479
  ===> Total Chemistry                     206.324
  => WRF                                  2704.530
  ===> Total WRF-GC                       2910.854
 HOURLY EMISSIONS UPDATE TIME    36000.0       0.0
mediation_integrate: med_read_wrf_chem_emissions: Read emissions for time 2018-01-01_10:00:00
 max optd  1.9364301E+31
 max taucldi  1.2202175E-02
 max taucldw  1.2394287E-06
 Switching is not necessary as we are already
 in the right domain!
 GIGC_Chunk_Run: Running for in-PET grid #           1
 GIGC_Chunk_Run: Received new grid IM, JM, LM =          15           9
          49
 =================================================
 W R F - G C   T I M E R S
    Domain           1 (Units: s)
 =================================================
  => Coupler Component                       4.886
   -- Physics & Parameterization             1.156
   -- Diagnostics Out                        0.000
  => GEOS-Chem Column                      202.518
  ===> Total Chemistry                     207.404
  => WRF                                  2722.768
  ===> Total WRF-GC                       2930.171
 max optd  1.9364301E+31
 max taucldi  1.2292288E-02
 max taucldw  1.2440514E-06
 Switching is not necessary as we are already
 in the right domain!
 GIGC_Chunk_Run: Running for in-PET grid #           1
 GIGC_Chunk_Run: Received new grid IM, JM, LM =          15           9
          49
 =================================================
 W R F - G C   T I M E R S
    Domain           1 (Units: s)
 =================================================
  => Coupler Component                       4.924
   -- Physics & Parameterization             1.165
   -- Diagnostics Out                        0.000
  => GEOS-Chem Column                      203.566
  ===> Total Chemistry                     208.490
  => WRF                                  2740.935
  ===> Total WRF-GC                       2949.425
 max optd  1.9364301E+31
 max taucldi  1.2512472E-02
 max taucldw  1.2482436E-06
 Switching is not necessary as we are already
 in the right domain!
 GIGC_Chunk_Run: Running for in-PET grid #           1
 GIGC_Chunk_Run: Received new grid IM, JM, LM =          15           9
          49
 =================================================
 W R F - G C   T I M E R S
    Domain           1 (Units: s)
 =================================================
  => Coupler Component                       4.962
   -- Physics & Parameterization             1.175
   -- Diagnostics Out                        0.000
  => GEOS-Chem Column                      204.619
  ===> Total Chemistry                     209.580
  => WRF                                  2759.079
  ===> Total WRF-GC                       2968.660
 max optd  1.9364301E+31
 max taucldi  1.2908638E-02
 max taucldw  1.2519777E-06
 Switching is not necessary as we are already
 in the right domain!
 GIGC_Chunk_Run: Running for in-PET grid #           1
 GIGC_Chunk_Run: Received new grid IM, JM, LM =          15           9
          49
 =================================================
 W R F - G C   T I M E R S
    Domain           1 (Units: s)
 =================================================
  => Coupler Component                       5.001
   -- Physics & Parameterization             1.184
   -- Diagnostics Out                        0.000
  => GEOS-Chem Column                      205.664
  ===> Total Chemistry                     210.665
  => WRF                                  2777.322
  ===> Total WRF-GC                       2987.988
 max optd  1.9364301E+31
 max taucldi  1.3325125E-02
 max taucldw  1.2553115E-06
 Switching is not necessary as we are already
 in the right domain!
 GIGC_Chunk_Run: Running for in-PET grid #           1
 GIGC_Chunk_Run: Received new grid IM, JM, LM =          15           9
          49
 =================================================
 W R F - G C   T I M E R S
    Domain           1 (Units: s)
 =================================================
  => Coupler Component                       5.041
   -- Physics & Parameterization             1.194
   -- Diagnostics Out                        0.000
  => GEOS-Chem Column                      206.722
  ===> Total Chemistry                     211.763
  => WRF                                  2795.509
  ===> Total WRF-GC                       3007.272
 max optd  1.9364301E+31
 max taucldi  1.3753979E-02
 max taucldw  1.2582951E-06
 Switching is not necessary as we are already
 in the right domain!
 GIGC_Chunk_Run: Running for in-PET grid #           1
 GIGC_Chunk_Run: Received new grid IM, JM, LM =          15           9
          49
 =================================================
 W R F - G C   T I M E R S
    Domain           1 (Units: s)
 =================================================
  => Coupler Component                       5.081
   -- Physics & Parameterization             1.204
   -- Diagnostics Out                        0.000
  => GEOS-Chem Column                      207.772
  ===> Total Chemistry                     212.853
  => WRF                                  2813.606
  ===> Total WRF-GC                       3026.459
 max optd  1.9364301E+31
 max taucldi  1.4076265E-02
 max taucldw  1.2608434E-06
 Switching is not necessary as we are already
 in the right domain!
 GIGC_Chunk_Run: Running for in-PET grid #           1
 GIGC_Chunk_Run: Received new grid IM, JM, LM =          15           9
          49
 =================================================
 W R F - G C   T I M E R S
    Domain           1 (Units: s)
 =================================================
  => Coupler Component                       5.124
   -- Physics & Parameterization             1.213
   -- Diagnostics Out                        0.000
  => GEOS-Chem Column                      208.813
  ===> Total Chemistry                     213.937
  => WRF                                  2831.791
  ===> Total WRF-GC                       3045.728
 max optd  1.9364301E+31
 max taucldi  1.4194358E-02
 max taucldw  1.2629512E-06
 Switching is not necessary as we are already
 in the right domain!
 GIGC_Chunk_Run: Running for in-PET grid #           1
 GIGC_Chunk_Run: Received new grid IM, JM, LM =          15           9
          49
 =================================================
 W R F - G C   T I M E R S
    Domain           1 (Units: s)
 =================================================
  => Coupler Component                       5.163
   -- Physics & Parameterization             1.223
   -- Diagnostics Out                        0.000
  => GEOS-Chem Column                      209.866
  ===> Total Chemistry                     215.029
  => WRF                                  2849.964
  ===> Total WRF-GC                       3064.993
 max optd  1.9364301E+31
 max taucldi  1.4117545E-02
 max taucldw  1.2648272E-06
 Switching is not necessary as we are already
 in the right domain!
 GIGC_Chunk_Run: Running for in-PET grid #           1
 GIGC_Chunk_Run: Received new grid IM, JM, LM =          15           9
          49
 =================================================
 W R F - G C   T I M E R S
    Domain           1 (Units: s)
 =================================================
  => Coupler Component                       5.203
   -- Physics & Parameterization             1.233
   -- Diagnostics Out                        0.000
  => GEOS-Chem Column                      210.913
  ===> Total Chemistry                     216.116
  => WRF                                  2868.091
  ===> Total WRF-GC                       3084.207
 max optd  1.9364301E+31
 max taucldi  1.3971867E-02
 max taucldw  1.2667437E-06
 Switching is not necessary as we are already
 in the right domain!
 GIGC_Chunk_Run: Running for in-PET grid #           1
 GIGC_Chunk_Run: Received new grid IM, JM, LM =          15           9
          49
 =================================================
 W R F - G C   T I M E R S
    Domain           1 (Units: s)
 =================================================
  => Coupler Component                       5.244
   -- Physics & Parameterization             1.242
   -- Diagnostics Out                        0.000
  => GEOS-Chem Column                      211.951
  ===> Total Chemistry                     217.195
  => WRF                                  2886.318
  ===> Total WRF-GC                       3103.513
 max optd  1.9364301E+31
 max taucldi  1.4884002E-02
 max taucldw  1.2688324E-06
 Switching is not necessary as we are already
 in the right domain!
 GIGC_Chunk_Run: Running for in-PET grid #           1
 GIGC_Chunk_Run: Received new grid IM, JM, LM =          15           9
          49
 =================================================
 W R F - G C   T I M E R S
    Domain           1 (Units: s)
 =================================================
  => Coupler Component                       5.281
   -- Physics & Parameterization             1.252
   -- Diagnostics Out                        0.000
  => GEOS-Chem Column                      213.006
  ===> Total Chemistry                     218.287
  => WRF                                  2904.485
  ===> Total WRF-GC                       3122.772
 max optd  1.9364301E+31
 max taucldi  1.5382412E-02
 max taucldw  1.2708840E-06
 Switching is not necessary as we are already
 in the right domain!
 GIGC_Chunk_Run: Running for in-PET grid #           1
 GIGC_Chunk_Run: Received new grid IM, JM, LM =          15           9
          49
 =================================================
 W R F - G C   T I M E R S
    Domain           1 (Units: s)
 =================================================
  => Coupler Component                       5.321
   -- Physics & Parameterization             1.261
   -- Diagnostics Out                        0.000
  => GEOS-Chem Column                      214.061
  ===> Total Chemistry                     219.382
  => WRF                                  2922.683
  ===> Total WRF-GC                       3142.065
 HOURLY EMISSIONS UPDATE TIME    39600.0       0.0
mediation_integrate: med_read_wrf_chem_emissions: Read emissions for time 2018-01-01_11:00:00
 max optd  1.9364301E+31
 max taucldi  1.5600078E-02
 max taucldw  1.2728411E-06
 Switching is not necessary as we are already
 in the right domain!
 GIGC_Chunk_Run: Running for in-PET grid #           1
 GIGC_Chunk_Run: Received new grid IM, JM, LM =          15           9
          49
 =================================================
 W R F - G C   T I M E R S
    Domain           1 (Units: s)
 =================================================
  => Coupler Component                       5.361
   -- Physics & Parameterization             1.271
   -- Diagnostics Out                        0.000
  => GEOS-Chem Column                      215.118
  ===> Total Chemistry                     220.479
  => WRF                                  2940.868
  ===> Total WRF-GC                       3161.346
 max optd  1.9364301E+31
 max taucldi  1.5609820E-02
 max taucldw  1.2748180E-06
 Switching is not necessary as we are already
 in the right domain!
 GIGC_Chunk_Run: Running for in-PET grid #           1
 GIGC_Chunk_Run: Received new grid IM, JM, LM =          15           9
          49
 =================================================
 W R F - G C   T I M E R S
    Domain           1 (Units: s)
 =================================================
  => Coupler Component                       5.400
   -- Physics & Parameterization             1.281
   -- Diagnostics Out                        0.000
  => GEOS-Chem Column                      216.178
  ===> Total Chemistry                     221.577
  => WRF                                  2958.991
  ===> Total WRF-GC                       3180.568
 max optd  1.9364301E+31
 max taucldi  1.5486014E-02
 max taucldw  1.2767545E-06
 Switching is not necessary as we are already
 in the right domain!
 GIGC_Chunk_Run: Running for in-PET grid #           1
 GIGC_Chunk_Run: Received new grid IM, JM, LM =          15           9
          49
 =================================================
 W R F - G C   T I M E R S
    Domain           1 (Units: s)
 =================================================
  => Coupler Component                       5.438
   -- Physics & Parameterization             1.290
   -- Diagnostics Out                        0.000
  => GEOS-Chem Column                      217.224
  ===> Total Chemistry                     222.662
  => WRF                                  2977.222
  ===> Total WRF-GC                       3199.883
 max optd  1.9364301E+31
 max taucldi  1.5331359E-02
 max taucldw  1.2786016E-06
 Switching is not necessary as we are already
 in the right domain!
 GIGC_Chunk_Run: Running for in-PET grid #           1
 GIGC_Chunk_Run: Received new grid IM, JM, LM =          15           9
          49
 =================================================
 W R F - G C   T I M E R S
    Domain           1 (Units: s)
 =================================================
  => Coupler Component                       5.478
   -- Physics & Parameterization             1.300
   -- Diagnostics Out                        0.000
  => GEOS-Chem Column                      218.260
  ===> Total Chemistry                     223.739
  => WRF                                  2995.510
  ===> Total WRF-GC                       3219.249
 max optd  1.9364301E+31
 max taucldi  1.5361512E-02
 max taucldw  1.2804526E-06
 Switching is not necessary as we are already
 in the right domain!
 GIGC_Chunk_Run: Running for in-PET grid #           1
 GIGC_Chunk_Run: Received new grid IM, JM, LM =          15           9
          49
 =================================================
 W R F - G C   T I M E R S
    Domain           1 (Units: s)
 =================================================
  => Coupler Component                       5.516
   -- Physics & Parameterization             1.309
   -- Diagnostics Out                        0.000
  => GEOS-Chem Column                      219.311
  ===> Total Chemistry                     224.827
  => WRF                                  3013.946
  ===> Total WRF-GC                       3238.773
 max optd  1.9364301E+31
 max taucldi  1.5793758E-02
 max taucldw  1.2824129E-06
 Switching is not necessary as we are already
 in the right domain!
 GIGC_Chunk_Run: Running for in-PET grid #           1
 GIGC_Chunk_Run: Received new grid IM, JM, LM =          15           9
          49
 =================================================
 W R F - G C   T I M E R S
    Domain           1 (Units: s)
 =================================================
  => Coupler Component                       5.557
   -- Physics & Parameterization             1.319
   -- Diagnostics Out                        0.000
  => GEOS-Chem Column                      220.363
  ===> Total Chemistry                     225.920
  => WRF                                  3032.345
  ===> Total WRF-GC                       3258.265
 max optd  1.9364301E+31
 max taucldi  1.6013676E-02
 max taucldw  1.2844508E-06
 Switching is not necessary as we are already
 in the right domain!
 GIGC_Chunk_Run: Running for in-PET grid #           1
 GIGC_Chunk_Run: Received new grid IM, JM, LM =          15           9
          49
 =================================================
 W R F - G C   T I M E R S
    Domain           1 (Units: s)
 =================================================
  => Coupler Component                       5.595
   -- Physics & Parameterization             1.328
   -- Diagnostics Out                        0.000
  => GEOS-Chem Column                      221.424
  ===> Total Chemistry                     227.019
  => WRF                                  3050.886
  ===> Total WRF-GC                       3277.905
 max optd  1.9364301E+31
 max taucldi  1.6224565E-02
 max taucldw  1.2863896E-06
 Switching is not necessary as we are already
 in the right domain!
 GIGC_Chunk_Run: Running for in-PET grid #           1
 GIGC_Chunk_Run: Received new grid IM, JM, LM =          15           9
          49
 =================================================
 W R F - G C   T I M E R S
    Domain           1 (Units: s)
 =================================================
  => Coupler Component                       5.634
   -- Physics & Parameterization             1.338
   -- Diagnostics Out                        0.000
  => GEOS-Chem Column                      222.483
  ===> Total Chemistry                     228.117
  => WRF                                  3069.438
  ===> Total WRF-GC                       3297.555
 max optd  1.9364301E+31
 max taucldi  1.6406573E-02
 max taucldw  1.2881368E-06
 Switching is not necessary as we are already
 in the right domain!
 GIGC_Chunk_Run: Running for in-PET grid #           1
 GIGC_Chunk_Run: Received new grid IM, JM, LM =          15           9
          49
 =================================================
 W R F - G C   T I M E R S
    Domain           1 (Units: s)
 =================================================
  => Coupler Component                       5.674
   -- Physics & Parameterization             1.348
   -- Diagnostics Out                        0.000
  => GEOS-Chem Column                      223.536
  ===> Total Chemistry                     229.210
  => WRF                                  3088.129
  ===> Total WRF-GC                       3317.339
 max optd  1.9364301E+31
 max taucldi  1.6256379E-02
 max taucldw  1.2898442E-06
 Switching is not necessary as we are already
 in the right domain!
 GIGC_Chunk_Run: Running for in-PET grid #           1
 GIGC_Chunk_Run: Received new grid IM, JM, LM =          15           9
          49
 =================================================
 W R F - G C   T I M E R S
    Domain           1 (Units: s)
 =================================================
  => Coupler Component                       5.716
   -- Physics & Parameterization             1.357
   -- Diagnostics Out                        0.000
  => GEOS-Chem Column                      224.572
  ===> Total Chemistry                     230.288
  => WRF                                  3107.027
  ===> Total WRF-GC                       3337.316
 max optd  1.9364301E+31
 max taucldi  1.6299928E-02
 max taucldw  1.2918316E-06
 Switching is not necessary as we are already
 in the right domain!
 GIGC_Chunk_Run: Running for in-PET grid #           1
 GIGC_Chunk_Run: Received new grid IM, JM, LM =          15           9
          49
 =================================================
 W R F - G C   T I M E R S
    Domain           1 (Units: s)
 =================================================
  => Coupler Component                       5.757
   -- Physics & Parameterization             1.367
   -- Diagnostics Out                        0.000
  => GEOS-Chem Column                      225.629
  ===> Total Chemistry                     231.386
  => WRF                                  3125.858
  ===> Total WRF-GC                       3357.243
 max optd  1.9364301E+31
 max taucldi  1.6142840E-02
 max taucldw  1.2943300E-06
 Switching is not necessary as we are already
 in the right domain!
 GIGC_Chunk_Run: Running for in-PET grid #           1
 GIGC_Chunk_Run: Received new grid IM, JM, LM =          15           9
          49
 =================================================
 W R F - G C   T I M E R S
    Domain           1 (Units: s)
 =================================================
  => Coupler Component                       5.794
   -- Physics & Parameterization             1.376
   -- Diagnostics Out                        0.000
  => GEOS-Chem Column                      226.678
  ===> Total Chemistry                     232.471
  => WRF                                  3144.595
  ===> Total WRF-GC                       3377.066
d01 2018-01-01_12:00:00 wrf: SUCCESS COMPLETE WRF
