taskid: 211 hostname: ip-172-31-1-17
Quilting with   1 groups of   0 I/O tasks.
 Ntasks in X           64 , ntasks in Y           72
--- WARNING: traj_opt is zero, but num_traj is not zero; setting num_traj to zero.
--- NOTE: sst_update is 0, setting io_form_auxinput4 = 0 and auxinput4_interval = 0 for all domains
--- NOTE: grid_fdda is 0 for domain      1, setting gfdda interval and ending time to 0 for that domain.
--- NOTE: both grid_sfdda and pxlsm_soil_nudge are 0 for domain      1, setting sgfdda interval and ending time to 0 for that domain.
--- NOTE: obs_nudge_opt is 0 for domain      1, setting obs nudging interval and ending time to 0 for that domain.
--- NOTE: bl_pbl_physics /= 4, implies mfshconv must be 0, resetting
Need MYNN PBL for icloud_bl = 1, resetting to 0
*************************************
No physics suite selected.
Physics options will be used directly from the namelist.
*************************************
--- NOTE: RRTMG radiation is in use, setting:  levsiz=59, alevsiz=12, no_src_types=6
--- NOTE: num_soil_layers has been set to      4
WRF V3.9.1.1 MODEL
 *************************************
 Parent domain
 ids,ide,jds,jde            1         950           1         650
 ims,ime,jms,jme          279         307          22          44
 ips,ipe,jps,jpe          286         300          29          37
 *************************************
DYNAMICS OPTION: Eulerian Mass Coordinate
   alloc_space_field: domain            1 ,              203623800  bytes allocated
  med_initialdata_input: calling input_input
Max map factor in domain 1 =  1.40. Scale the dt in the model accordingly.
INPUT LandUse = "USGS"
 LANDUSE TYPE = "USGS" FOUND          33  CATEGORIES           2  SEASONS WATER CATEGORY =           16  SNOW CATEGORY =           24
INITIALIZE THREE Noah LSM RELATED TABLES
*****************************************************************
  __          _______  ______       _____  _____ _    _ _____
  \ \        / /  __ \|  ____|     / ____|/ ____| |  | |  __ \
   \ \  /\  / /| |__) | |__ ______| |  __| |    | |__| | |__) |
    \ \/  \/ / |  _  /|  __|______| | |_ | |    |  __  |  ___/
     \  /\  /  | | \ \| |         | |__| | |____| |  | | |
      \/  \/   |_|  \_\_|          \_____|\_____|_|  |_|_|
*****************************************************************
         WRF-GC MODEL, VERSION 1811.11 - WRF BINDINGS
 For errors, suggestions & feedback email linhaipeng@pku.edu.cn
*****************************************************************
    This is domain            1
 ### GIGC_Stateful_Mod: Root CPU, after READ_INPUT_FILE
  Linoz Data:  O3 climatology :                  z*=10, 12, ..., 58                             2.700E-08 1.083E-05
  Linoz Data:  Temperature climatology :         z*=10, 12, ..., 58                             1.859E+02 2.904E+02
  Linoz Data:  Column O3 above box climalology : z*=10, 12, ..., 58                             7.538E-02 3.770E+02
  Linoz Data:  P-L O3 climatology (mr/s):        z*=10, 12, ..., 58                            -1.590E-10 2.835E-11
  Linoz Data:  d(P-L)/dO3 (1/s) :                z*=10, 12, ..., 58                            -8.386E-04 7.556E-09
  Linoz Data:  d(P-L)/dT (mr/K) :                z*=10, 12, ..., 58                            -5.742E-12 4.615E-14
  Linoz Data:  d(P-L)/d(column O3) (mr/DU) :     z*=10, 12, ..., 58                            -1.921E-12 5.038E-10
 ### GIGC_Stateful_Mod: Root CPU, after LINOZ_READ
 %%%%%%%%% GIGC IN-PET GRID SWITCHING HACKS %%%%%%%%%
     (Not very) Proudly brought to you by hplin      
 Some debug information:
 ID:           1
 IM, JM, LM:          15           9          49  will be set as PAR
 Allocs: CMN T GC F
 RC at entry-point:           0
 %%%%%%%%%%%%%%%%%%%%%%%%%%%%%%%%%%%%%%%%%%%%%%%%%%%%
 No need to switch HcoState for ID           1
 Exit RC:            0
 %%%%%%%%%    FINISHED GIGC_Switch_Dims    %%%%%%%%%
 GIGC_Chunk_Init: Received new grid IM, JM, LM =          15           9
          49
     ### GIGC_INIT_SIMULATION: after Input_Opt% setups
     ### GIGC_INIT_SIMULATION: after GC_Init_All
     ### GIGC_INIT_SIMULATION: after GC_Init_Extra
     ### GIGC_INIT_SIMULATION: after INIT_FJX
 # GIGC_CHUNK_MOD: after SV save, ID =           1
 WRFGC chemics_init: Following information regarding Input_Opt% (for all doms)
 After domain           1
 HPC:  T
 LPRT:  F
 DoConv:  T
 DoDryDep:  T
 DoEmis:  T
 DoChem:  T
 DoTurb:  T
 DoWetDep:  T

 tropopause_init: DONE intialized domain            1

 mediation_integrate: med_read_wrf_chem_emissions: Open file wrfchemi_00z_d01
 HOURLY EMISSIONS UPDATE TIME        0.0       0.0
mediation_integrate: med_read_wrf_chem_emissions: Read emissions for time 2018-01-01_00:00:00
open_aux_u : error opening wrffirechemi_d01_2018-01-01_00:00:00 for reading. 100
open_aux_u : error opening wrfchemi_gocart_bg_d01 for reading. 100
d01 2018-01-01_00:00:00 Input data processed for aux input   8 for domain   1
open_aux_u : error opening wrfchemv_d01 for reading. 100
 Tile Strategy is not specified. Assuming 1D-Y
WRF TILE   1 IS    286 IE    300 JS     29 JE     37
WRF NUMBER OF TILES =   1
 max optd  3.3547268E+12
 max taucldi  0.0000000E+00
 max taucldw  0.0000000E+00
 =================================================
 W R F - G C   T I M E R S
    Domain           1 (Units: s)
 =================================================
  => Coupler Component                       0.029
   -- Physics & Parameterization             0.001
   -- Diagnostics Out                        0.000
  => GEOS-Chem Column                        0.000
  ===> Total Chemistry                       0.029
  => WRF                                     0.000
  ===> Total WRF-GC                          0.029
 max optd  3.3547268E+12
 max taucldi  1.0000006E-14
 max taucldw  1.0000006E-14
 %%%%%%%%% GIGC IN-PET GRID SWITCHING HACKS %%%%%%%%%
     (Not very) Proudly brought to you by hplin      
 Some debug information:
 ID:           1
 IM, JM, LM:          15           9          49  will be set as PAR
 Allocs: CMN T GC T
 RC at entry-point:           0
 %%%%%%%%%%%%%%%%%%%%%%%%%%%%%%%%%%%%%%%%%%%%%%%%%%%%
 No need to switch HcoState for ID           1
 Debug HcoState nSpc, NX, NY, NZ         163          15           9          49
 Exit RC:            0
 %%%%%%%%%    FINISHED GIGC_Switch_Dims    %%%%%%%%%
 GIGC_Chunk_Run: Running for in-PET grid #           1
 GIGC_Chunk_Run: Received new grid IM, JM, LM =          15           9
          49
HEMCO: Opening /fsx/HEMCO/BIOFUEL/v2014-07/biofuel.geos.4x5.nc
HEMCO: Opening /fsx/HEMCO/BROMINE/v2015-02/Bromocarb_Liang2010.nc
HEMCO: Opening /fsx/HEMCO/ACET/v2014-07/ACET_seawater.generic.1x1.nc
HEMCO: Opening /fsx/HEMCO/SOILNOX/v2014-07/DepReservoirDefault.nc
HEMCO: Opening /fsx/HEMCO/SOILNOX/v2014-07/soilNOx.landtype.generic.025x025.1L.nc
HEMCO: Opening /fsx/HEMCO/SOILNOX/v2014-07/soilNOx.climate.generic.05x05.nc
HEMCO: Opening /fsx/HEMCO/DUST_DEAD/v2014-07/dst_tibds.geos.4x5.nc
HEMCO: Opening /fsx/HEMCO/DUST_DEAD/v2014-07/GOCART_src_fn.geos.4x5.nc
HEMCO: Opening /fsx/HEMCO/MEGAN/v2018-05/MEGAN2.1_EF.geos.025x03125.nc
HEMCO: Opening /fsx/HEMCO/MEGAN/v2017-07/CLM4_PFT.geos.025x03125.nc
HEMCO: Opening /fsx/HEMCO/TIMEZONES/v2015-02/timezones_voronoi_1x1.nc
HEMCO: Opening /fsx/HEMCO/STRAT/v2015-01/Bry/GEOSCCM_Bry.200701.day.nc
HEMCO: Opening /fsx/HEMCO/STRAT/v2015-01/Bry/GEOSCCM_Bry.200701.night.nc
HEMCO: Opening /fsx/HEMCO/OMOC/v2018-01/OMOC.DJF.01x01.nc
HEMCO: Opening /fsx/HEMCO/OMOC/v2018-01/OMOC.MAM.01x01.nc
HEMCO: Opening /fsx/HEMCO/OMOC/v2018-01/OMOC.JJA.01x01.nc
HEMCO: Opening /fsx/HEMCO/OMOC/v2018-01/OMOC.SON.01x01.nc
HEMCO: Opening /fsx/HEMCO/AnnualScalar/v2014-07/AnnualScalar.geos.1x1.nc
HEMCO: Opening /fsx/HEMCO/EDGARv42/v2015-02/NO/EDGAR_hourly_NOxScal.nc
HEMCO: Opening /fsx/HEMCO/MASKS/v2018-09/EMEP_mask.geos.1x1.20151222.nc
HEMCO: Opening /fsx/HEMCO/MASKS/v2018-09/Canada_mask.geos.1x1.nc
HEMCO: Opening /fsx/HEMCO/MASKS/v2018-09/SE_Asia_mask.generic.1x1.nc
HEMCO: Opening /fsx/HEMCO/MASKS/v2018-09/MIX_Asia_mask.generic.025x025.nc
HEMCO: Opening /fsx/HEMCO/MASKS/v2018-09/CONUS_Mask.01x01.nc
HEMCO: Opening /fsx/HEMCO/MASKS/v2018-09/AF_LANDMASK.geos.05x0666.global.nc
HEMCO: Opening /fsx/HEMCO/MASKS/v2018-09/China_mask.generic.1x1.nc
HEMCO: Opening /fsx/HEMCO/MASKS/v2018-09/India_mask.generic.1x1.nc
HEMCO: Opening /fsx/HEMCO/AnnualScalar/v2014-07/AnnualScalar.geos.1x1.nc
HEMCO: Opening /fsx/HEMCO/NH3/v2014-07/NH3_geos.4x5.nc
HEMCO: Opening /fsx/HEMCO/NH3/v2018-04/NH3_Arctic_seabirds.nc
HEMCO: Opening /fsx/HEMCO/CEDS/v2018-08/2014/NO-em-anthro_CMIP_CEDS_2014.nc
HEMCO: Opening /fsx/HEMCO/CEDS/v2018-08/2014/CO-em-anthro_CMIP_CEDS_2014.nc
HEMCO: Opening /fsx/HEMCO/CEDS/v2018-08/2014/SO2-em-anthro_CMIP_CEDS_2014.nc
HEMCO: Opening /fsx/HEMCO/CEDS/v2018-08/2014/NH3-em-anthro_CMIP_CEDS_2014.nc
HEMCO: Opening /fsx/HEMCO/CEDS/v2018-08/2014/BC-em-anthro_CMIP_CEDS_2014.nc
HEMCO: Opening /fsx/HEMCO/CEDS/v2018-08/2014/OC-em-anthro_CMIP_CEDS_2014.nc
HEMCO: Opening /fsx/HEMCO/CEDS/v2018-08/2014/EOH-em-anthro_CMIP_CEDS_2014.nc
HEMCO: Opening /fsx/HEMCO/CEDS/v2018-08/2014/C2H6-em-anthro_CMIP_CEDS_2014.nc
HEMCO: Opening /fsx/HEMCO/CEDS/v2018-08/2014/C3H8-em-anthro_CMIP_CEDS_2014.nc
HEMCO: Opening /fsx/HEMCO/CEDS/v2018-08/2014/ALK4_butanes-em-anthro_CMIP_CEDS_2014.nc
HEMCO: Opening /fsx/HEMCO/CEDS/v2018-08/2014/ALK4_pentanes-em-anthro_CMIP_CEDS_2014.nc
HEMCO: Opening /fsx/HEMCO/CEDS/v2018-08/2014/ALK4_hexanes-em-anthro_CMIP_CEDS_2014.nc
HEMCO: Opening /fsx/HEMCO/CEDS/v2018-08/2014/PRPE-em-anthro_CMIP_CEDS_2014.nc
HEMCO: Opening /fsx/HEMCO/CEDS/v2018-08/2014/BENZ-em-anthro_CMIP_CEDS_2014.nc
HEMCO: Opening /fsx/HEMCO/CEDS/v2018-08/2014/TOLU-em-anthro_CMIP_CEDS_2014.nc
HEMCO: Opening /fsx/HEMCO/CEDS/v2018-08/2014/XYLE-em-anthro_CMIP_CEDS_2014.nc
HEMCO: Opening /fsx/HEMCO/CEDS/v2018-08/2014/CH2O-em-anthro_CMIP_CEDS_2014.nc
HEMCO: Opening /fsx/HEMCO/CEDS/v2018-08/2014/ALD2-em-anthro_CMIP_CEDS_2014.nc
HEMCO: Opening /fsx/HEMCO/CEDS/v2018-08/2014/MEK-em-anthro_CMIP_CEDS_2014.nc
HEMCO: Opening /fsx/HEMCO/CEDS/v2018-08/2014/HCOOH-em-anthro_CMIP_CEDS_2014.nc
HEMCO: Opening /fsx/HEMCO/C2H6_2010/v2017-05/C2H6_global_anth_biof.201001.nc
HEMCO: Opening /fsx/HEMCO/NEI2011/v2017-02-MM/01/NEI11_0.1x0.1_201101_monmean.nc
HEMCO: Opening /fsx/HEMCO/NEI2011/v2017-02-MM/01/NEI11_0.1x0.1_201101_monmean_egu.nc
HEMCO: Opening /fsx/HEMCO/NEI2011/v2017-02-MM/01/NEI11_0.1x0.1_201101_monmean_egupk.nc
HEMCO: Opening /fsx/HEMCO/NEI2011/v2017-02-MM/01/NEI11_0.1x0.1_201101_monmean_oilgas.nc
HEMCO: Opening /fsx/HEMCO/NEI2011/v2017-02-MM/01/NEI11_0.1x0.1_201101_monmean_othpt.nc
HEMCO: Opening /fsx/HEMCO/NEI2011/v2017-02-MM/01/NEI11_0.1x0.1_201101_monmean_ptnonipm.nc
HEMCO: Opening /fsx/HEMCO/IODINE/v2017-09/CH3I_monthly_emissions_Ordonez_2012_COARDS.nc
HEMCO: Opening /fsx/HEMCO/IODINE/v2017-09/CH2I2_monthly_emissions_Ordonez_2012_COARDS.nc
HEMCO: Opening /fsx/HEMCO/IODINE/v2017-09/CH2ICl_monthly_emissions_Ordonez_2012_COARDS.nc
HEMCO: Opening /fsx/HEMCO/IODINE/v2017-09/CH2IBr_monthly_emissions_Ordonez_2012_COARDS.nc
HEMCO: Opening /fsx/HEMCO/CEDS/v2018-08/2014/CO-em-anthro_CMIP_CEDS_2014.nc
HEMCO: Opening /fsx/HEMCO/CEDS/v2018-08/2014/SO2-em-anthro_CMIP_CEDS_2014.nc
HEMCO: Opening /fsx/HEMCO/CEDS/v2018-08/2014/NH3-em-anthro_CMIP_CEDS_2014.nc
HEMCO: Opening /fsx/HEMCO/CEDS/v2018-08/2014/BC-em-anthro_CMIP_CEDS_2014.nc
HEMCO: Opening /fsx/HEMCO/CEDS/v2018-08/2014/OC-em-anthro_CMIP_CEDS_2014.nc
HEMCO: Opening /fsx/HEMCO/CEDS/v2018-08/2014/EOH-em-anthro_CMIP_CEDS_2014.nc
HEMCO: Opening /fsx/HEMCO/CEDS/v2018-08/2014/C2H6-em-anthro_CMIP_CEDS_2014.nc
HEMCO: Opening /fsx/HEMCO/CEDS/v2018-08/2014/C3H8-em-anthro_CMIP_CEDS_2014.nc
HEMCO: Opening /fsx/HEMCO/CEDS/v2018-08/2014/ALK4_butanes-em-anthro_CMIP_CEDS_2014.nc
HEMCO: Opening /fsx/HEMCO/CEDS/v2018-08/2014/ALK4_pentanes-em-anthro_CMIP_CEDS_2014.nc
HEMCO: Opening /fsx/HEMCO/CEDS/v2018-08/2014/ALK4_hexanes-em-anthro_CMIP_CEDS_2014.nc
HEMCO: Opening /fsx/HEMCO/CEDS/v2018-08/2014/PRPE-em-anthro_CMIP_CEDS_2014.nc
HEMCO: Opening /fsx/HEMCO/CEDS/v2018-08/2014/BENZ-em-anthro_CMIP_CEDS_2014.nc
HEMCO: Opening /fsx/HEMCO/CEDS/v2018-08/2014/TOLU-em-anthro_CMIP_CEDS_2014.nc
HEMCO: Opening /fsx/HEMCO/CEDS/v2018-08/2014/XYLE-em-anthro_CMIP_CEDS_2014.nc
HEMCO: Opening /fsx/HEMCO/CEDS/v2018-08/2014/CH2O-em-anthro_CMIP_CEDS_2014.nc
HEMCO: Opening /fsx/HEMCO/CEDS/v2018-08/2014/ALD2-em-anthro_CMIP_CEDS_2014.nc
HEMCO: Opening /fsx/HEMCO/CEDS/v2018-08/2014/MEK-em-anthro_CMIP_CEDS_2014.nc
HEMCO: Opening /fsx/HEMCO/CEDS/v2018-08/2014/HCOOH-em-anthro_CMIP_CEDS_2014.nc
HEMCO: Opening /fsx/HEMCO/CEDS/v2018-08/2014/NO-em-anthro_CMIP_CEDS_2014.nc
HEMCO: Opening /fsx/HEMCO/AEIC/v2015-01/AEIC.47L.gen.1x1.nc
HEMCO: Opening /fsx/HEMCO/ALD2/v2017-03/resp.geos.2x25.nc
HEMCO: Opening /fsx/HEMCO/DMS/v2015-07/DMS_lana.geos.1x1.nc
HEMCO: Opening /fsx/HEMCO/ALD2/v2017-03/ALD2_seawater.geos.2x25.nc
HEMCO: Opening /fsx/HEMCO/DUST_DEAD/v2014-07/dst_tvbds.geos.4x5.nc
HEMCO: Opening /fsx/HEMCO/DUST_DEAD/v2018-04/PM25FINE_ECLIPSE_2015.geos.2x25.nc
HEMCO: Opening /fsx/HEMCO/SOA/v2014-07/NVOC.geos.1x1.nc
HEMCO: Opening /fsx/HEMCO/GFED4/v2015-10/2016/GFED4_gen.025x025.201601.nc
HEMCO: Opening /fsx/HEMCO/UVALBEDO/v2015-03/uvalbedo.geos.2x25.nc
HEMCO: Opening /fsx/HEMCO/GMI/v2015-02/gmi.clim.ACET.geos5.2x25.nc
HEMCO: Opening /fsx/HEMCO/GMI/v2015-02/gmi.clim.ACTA.geos5.2x25.nc
HEMCO: Opening /fsx/HEMCO/GMI/v2015-02/gmi.clim.ALD2.geos5.2x25.nc
HEMCO: Opening /fsx/HEMCO/GMI/v2015-02/gmi.clim.ALK4.geos5.2x25.nc
HEMCO: Opening /fsx/HEMCO/GMI/v2015-02/gmi.clim.C2H6.geos5.2x25.nc
HEMCO: Opening /fsx/HEMCO/GMI/v2015-02/gmi.clim.C3H8.geos5.2x25.nc
HEMCO: Opening /fsx/HEMCO/GMI/v2015-02/gmi.clim.CCl4.geos5.2x25.nc
HEMCO: Opening /fsx/HEMCO/GMI/v2015-02/gmi.clim.CF2Cl2.geos5.2x25.nc
HEMCO: Opening /fsx/HEMCO/GMI/v2015-02/gmi.clim.CF2ClBr.geos5.2x25.nc
HEMCO: Opening /fsx/HEMCO/GMI/v2015-02/gmi.clim.CFC113.geos5.2x25.nc
HEMCO: Opening /fsx/HEMCO/GMI/v2015-02/gmi.clim.CFC114.geos5.2x25.nc
HEMCO: Opening /fsx/HEMCO/GMI/v2015-02/gmi.clim.CFC115.geos5.2x25.nc
HEMCO: Opening /fsx/HEMCO/GMI/v2015-02/gmi.clim.CFCl3.geos5.2x25.nc
HEMCO: Opening /fsx/HEMCO/GMI/v2015-02/gmi.clim.CH2O.geos5.2x25.nc
HEMCO: Opening /fsx/HEMCO/GMI/v2015-02/gmi.clim.CH3CCl3.geos5.2x25.nc
HEMCO: Opening /fsx/HEMCO/GMI/v2015-02/gmi.clim.CH3Cl.geos5.2x25.nc
HEMCO: Opening /fsx/HEMCO/GMI/v2015-02/gmi.clim.CH4.geos5.2x25.nc
HEMCO: Opening /fsx/HEMCO/GMI/v2015-02/gmi.clim.CO.geos5.2x25.nc
HEMCO: Opening /fsx/HEMCO/GMI/v2015-02/gmi.clim.Cl.geos5.2x25.nc
HEMCO: Opening /fsx/HEMCO/GMI/v2015-02/gmi.clim.Cl2.geos5.2x25.nc
HEMCO: Opening /fsx/HEMCO/GMI/v2015-02/gmi.clim.Cl2O2.geos5.2x25.nc
HEMCO: Opening /fsx/HEMCO/GMI/v2015-02/gmi.clim.ClO.geos5.2x25.nc
HEMCO: Opening /fsx/HEMCO/GMI/v2015-02/gmi.clim.EOH.geos5.2x25.nc
HEMCO: Opening /fsx/HEMCO/GMI/v2015-02/gmi.clim.GLYC.geos5.2x25.nc
HEMCO: Opening /fsx/HEMCO/GMI/v2015-02/gmi.clim.GLYX.geos5.2x25.nc
HEMCO: Opening /fsx/HEMCO/GMI/v2015-02/gmi.clim.H2402.geos5.2x25.nc
HEMCO: Opening /fsx/HEMCO/GMI/v2015-02/gmi.clim.H2O.geos5.2x25.nc
HEMCO: Opening /fsx/HEMCO/GMI/v2015-02/gmi.clim.H2O2.geos5.2x25.nc
HEMCO: Opening /fsx/HEMCO/GMI/v2015-02/gmi.clim.HAC.geos5.2x25.nc
HEMCO: Opening /fsx/HEMCO/GMI/v2015-02/gmi.clim.HCFC141b.geos5.2x25.nc
HEMCO: Opening /fsx/HEMCO/GMI/v2015-02/gmi.clim.HCFC142b.geos5.2x25.nc
HEMCO: Opening /fsx/HEMCO/GMI/v2015-02/gmi.clim.HCFC22.geos5.2x25.nc
HEMCO: Opening /fsx/HEMCO/GMI/v2015-02/gmi.clim.HCOOH.geos5.2x25.20170108.nc
HEMCO: Opening /fsx/HEMCO/GMI/v2015-02/gmi.clim.HCl.geos5.2x25.nc
HEMCO: Opening /fsx/HEMCO/GMI/v2015-02/gmi.clim.HNO2.geos5.2x25.nc
HEMCO: Opening /fsx/HEMCO/GMI/v2015-02/gmi.clim.HNO3.geos5.2x25.nc
HEMCO: Opening /fsx/HEMCO/GMI/v2015-02/gmi.clim.HNO4.geos5.2x25.nc
HEMCO: Opening /fsx/HEMCO/GMI/v2015-02/gmi.clim.HOCl.geos5.2x25.nc
HEMCO: Opening /fsx/HEMCO/GMI/v2015-02/gmi.clim.ISN1.geos5.2x25.nc
HEMCO: Opening /fsx/HEMCO/GMI/v2015-02/gmi.clim.ISOP.geos5.2x25.nc
HEMCO: Opening /fsx/HEMCO/GMI/v2015-02/gmi.clim.MACR.geos5.2x25.nc
HEMCO: Opening /fsx/HEMCO/GMI/v2015-02/gmi.clim.MAP.geos5.2x25.nc
HEMCO: Opening /fsx/HEMCO/GMI/v2015-02/gmi.clim.MEK.geos5.2x25.nc
HEMCO: Opening /fsx/HEMCO/GMI/v2015-02/gmi.clim.MGLY.geos5.2x25.nc
HEMCO: Opening /fsx/HEMCO/GMI/v2015-02/gmi.clim.MP.geos5.2x25.nc
HEMCO: Opening /fsx/HEMCO/GMI/v2015-02/gmi.clim.MVK.geos5.2x25.nc
HEMCO: Opening /fsx/HEMCO/GMI/v2015-02/gmi.clim.N2O.geos5.2x25.nc
HEMCO: Opening /fsx/HEMCO/GMI/v2015-02/gmi.clim.N2O5.geos5.2x25.nc
HEMCO: Opening /fsx/HEMCO/GMI/v2015-02/gmi.clim.NO.geos5.2x25.nc
HEMCO: Opening /fsx/HEMCO/GMI/v2015-02/gmi.clim.NO2.geos5.2x25.nc
HEMCO: Opening /fsx/HEMCO/GMI/v2015-02/gmi.clim.NO3.geos5.2x25.nc
HEMCO: Opening /fsx/HEMCO/GMI/v2015-02/gmi.clim.O3.geos5.2x25.nc
HEMCO: Opening /fsx/HEMCO/GMI/v2015-02/gmi.clim.OClO.geos5.2x25.nc
HEMCO: Opening /fsx/HEMCO/GMI/v2015-02/gmi.clim.PAN.geos5.2x25.nc
HEMCO: Opening /fsx/HEMCO/GMI/v2015-02/gmi.clim.NPMN.geos5.2x25.nc
HEMCO: Opening /fsx/HEMCO/GMI/v2015-02/gmi.clim.IPMN.geos5.2x25.nc
HEMCO: Opening /fsx/HEMCO/GMI/v2015-02/gmi.clim.PPN.geos5.2x25.nc
HEMCO: Opening /fsx/HEMCO/GMI/v2015-02/gmi.clim.PRPE.geos5.2x25.nc
HEMCO: Opening /fsx/HEMCO/GMI/v2015-02/gmi.clim.R4N2.geos5.2x25.nc
HEMCO: Opening /fsx/HEMCO/GMI/v2015-02/gmi.clim.RCHO.geos5.2x25.nc
HEMCO: Opening /fsx/HEMCO/GMI/v2015-02/gmi.clim.RIPA.geos5.2x25.nc
HEMCO: Opening /fsx/HEMCO/GMI/v2015-02/gmi.clim.RIPB.geos5.2x25.nc
HEMCO: Opening /fsx/HEMCO/GMI/v2015-02/gmi.clim.RIPD.geos5.2x25.nc
HEMCO: Opening /fsx/HEMCO/GMI/v2015-02/gmi.clim.OH.geos5.2x25.nc
HEMCO: Opening /fsx/HEMCO/NOAA_GMD/v2018-01/monthly.gridded.surface.methane.1979-2020.1x1.nc
HEMCO: Opening /fsx/HEMCO/GEIA/v2014-07/GEIA_monthscal.generic.1x1.nc
HEMCO: Opening /fsx/HEMCO/EMEP/v2015-03/EMEP.Seasonal.geos.1x1.nc
HEMCO: Opening /fsx/HEMCO/BROMINE/v2015-02/BromoCarb_Season.nc
HEMCO: Opening /fsx/HEMCO/EDGARv43/v2016-11/EDGAR_v43.Seasonal.1x1.nc
HEMCO: Opening /fsx/HEMCO/NEI2005/v2014-09/scaling/NEI99.dow.geos.1x1.nc
HEMCO: Opening /fsx/HEMCO/VOLCANO/v2015-02/2009/volc_so2_gen.1x1.47L.200901.nc
HEMCO: Opening /fsx/HEMCO/SOILNOX/v2014-07/soilNOx.fert_res.generic.05x05.nc
 vdinti: pbl height will be limited to bottom           25  model levels. top is
     431.250100000000       hpa
 =================================================
 W R F - G C   T I M E R S
    Domain           1 (Units: s)
 =================================================
  => Coupler Component                       0.060
   -- Physics & Parameterization             0.011
   -- Diagnostics Out                        0.000
  => GEOS-Chem Column                       64.937
  ===> Total Chemistry                      64.997
  => WRF                                    17.276
  ===> Total WRF-GC                         82.274
 max optd  1.9364301E+31
 max taucldi  1.0091992E-06
 max taucldw  1.4732393E-06
 Switching is not necessary as we are already
 in the right domain!
 GIGC_Chunk_Run: Running for in-PET grid #           1
 GIGC_Chunk_Run: Received new grid IM, JM, LM =          15           9
          49
 =================================================
 W R F - G C   T I M E R S
    Domain           1 (Units: s)
 =================================================
  => Coupler Component                       0.086
   -- Physics & Parameterization             0.021
   -- Diagnostics Out                        0.000
  => GEOS-Chem Column                       67.609
  ===> Total Chemistry                      67.695
  => WRF                                   125.943
  ===> Total WRF-GC                        193.638
 max optd  1.9364301E+31
 max taucldi  2.1639080E-06
 max taucldw  2.8490606E-06
 Switching is not necessary as we are already
 in the right domain!
 GIGC_Chunk_Run: Running for in-PET grid #           1
 GIGC_Chunk_Run: Received new grid IM, JM, LM =          15           9
          49
 =================================================
 W R F - G C   T I M E R S
    Domain           1 (Units: s)
 =================================================
  => Coupler Component                       0.119
   -- Physics & Parameterization             0.031
   -- Diagnostics Out                        0.000
  => GEOS-Chem Column                       69.106
  ===> Total Chemistry                      69.224
  => WRF                                   145.135
  ===> Total WRF-GC                        214.359
 max optd  1.9364301E+31
 max taucldi  3.2894352E-06
 max taucldw  4.2124479E-06
 Switching is not necessary as we are already
 in the right domain!
 GIGC_Chunk_Run: Running for in-PET grid #           1
 GIGC_Chunk_Run: Received new grid IM, JM, LM =          15           9
          49
 =================================================
 W R F - G C   T I M E R S
    Domain           1 (Units: s)
 =================================================
  => Coupler Component                       0.157
   -- Physics & Parameterization             0.041
   -- Diagnostics Out                        0.000
  => GEOS-Chem Column                       70.388
  ===> Total Chemistry                      70.546
  => WRF                                   163.709
  ===> Total WRF-GC                        234.255
 max optd  1.9364301E+31
 max taucldi  4.2874412E-06
 max taucldw  5.4769325E-06
 Switching is not necessary as we are already
 in the right domain!
 GIGC_Chunk_Run: Running for in-PET grid #           1
 GIGC_Chunk_Run: Received new grid IM, JM, LM =          15           9
          49
 =================================================
 W R F - G C   T I M E R S
    Domain           1 (Units: s)
 =================================================
  => Coupler Component                       0.203
   -- Physics & Parameterization             0.050
   -- Diagnostics Out                        0.000
  => GEOS-Chem Column                       71.679
  ===> Total Chemistry                      71.882
  => WRF                                   182.057
  ===> Total WRF-GC                        253.939
 max optd  1.9364301E+31
 max taucldi  5.2807773E-06
 max taucldw  6.6597586E-06
 Switching is not necessary as we are already
 in the right domain!
 GIGC_Chunk_Run: Running for in-PET grid #           1
 GIGC_Chunk_Run: Received new grid IM, JM, LM =          15           9
          49
 =================================================
 W R F - G C   T I M E R S
    Domain           1 (Units: s)
 =================================================
  => Coupler Component                       0.238
   -- Physics & Parameterization             0.060
   -- Diagnostics Out                        0.000
  => GEOS-Chem Column                       72.955
  ===> Total Chemistry                      73.193
  => WRF                                   200.260
  ===> Total WRF-GC                        273.454
 max optd  1.9364301E+31
 max taucldi  6.2659869E-06
 max taucldw  7.7160612E-06
 Switching is not necessary as we are already
 in the right domain!
 GIGC_Chunk_Run: Running for in-PET grid #           1
 GIGC_Chunk_Run: Received new grid IM, JM, LM =          15           9
          49
 =================================================
 W R F - G C   T I M E R S
    Domain           1 (Units: s)
 =================================================
  => Coupler Component                       0.275
   -- Physics & Parameterization             0.069
   -- Diagnostics Out                        0.000
  => GEOS-Chem Column                       74.145
  ===> Total Chemistry                      74.419
  => WRF                                   218.485
  ===> Total WRF-GC                        292.904
 max optd  1.9364301E+31
 max taucldi  7.2305052E-06
 max taucldw  8.6503642E-06
 Switching is not necessary as we are already
 in the right domain!
 GIGC_Chunk_Run: Running for in-PET grid #           1
 GIGC_Chunk_Run: Received new grid IM, JM, LM =          15           9
          49
 =================================================
 W R F - G C   T I M E R S
    Domain           1 (Units: s)
 =================================================
  => Coupler Component                       0.313
   -- Physics & Parameterization             0.079
   -- Diagnostics Out                        0.000
  => GEOS-Chem Column                       75.328
  ===> Total Chemistry                      75.641
  => WRF                                   236.723
  ===> Total WRF-GC                        312.364
 max optd  1.9364301E+31
 max taucldi  8.1364869E-06
 max taucldw  9.8198334E-06
 Switching is not necessary as we are already
 in the right domain!
 GIGC_Chunk_Run: Running for in-PET grid #           1
 GIGC_Chunk_Run: Received new grid IM, JM, LM =          15           9
          49
 =================================================
 W R F - G C   T I M E R S
    Domain           1 (Units: s)
 =================================================
  => Coupler Component                       0.345
   -- Physics & Parameterization             0.089
   -- Diagnostics Out                        0.000
  => GEOS-Chem Column                       76.497
  ===> Total Chemistry                      76.843
  => WRF                                   254.974
  ===> Total WRF-GC                        331.817
 max optd  1.9364301E+31
 max taucldi  8.9922814E-06
 max taucldw  1.1207899E-05
 Switching is not necessary as we are already
 in the right domain!
 GIGC_Chunk_Run: Running for in-PET grid #           1
 GIGC_Chunk_Run: Received new grid IM, JM, LM =          15           9
          49
 =================================================
 W R F - G C   T I M E R S
    Domain           1 (Units: s)
 =================================================
  => Coupler Component                       0.382
   -- Physics & Parameterization             0.098
   -- Diagnostics Out                        0.000
  => GEOS-Chem Column                       77.650
  ===> Total Chemistry                      78.032
  => WRF                                   273.293
  ===> Total WRF-GC                        351.326
 max optd  1.9364301E+31
 max taucldi  9.8128849E-06
 max taucldw  1.2511869E-05
 Switching is not necessary as we are already
 in the right domain!
 GIGC_Chunk_Run: Running for in-PET grid #           1
 GIGC_Chunk_Run: Received new grid IM, JM, LM =          15           9
          49
 =================================================
 W R F - G C   T I M E R S
    Domain           1 (Units: s)
 =================================================
  => Coupler Component                       0.416
   -- Physics & Parameterization             0.108
   -- Diagnostics Out                        0.000
  => GEOS-Chem Column                       78.797
  ===> Total Chemistry                      79.213
  => WRF                                   291.553
  ===> Total WRF-GC                        370.766
 max optd  1.9364301E+31
 max taucldi  1.0613037E-05
 max taucldw  1.3729211E-05
 Switching is not necessary as we are already
 in the right domain!
 GIGC_Chunk_Run: Running for in-PET grid #           1
 GIGC_Chunk_Run: Received new grid IM, JM, LM =          15           9
          49
 =================================================
 W R F - G C   T I M E R S
    Domain           1 (Units: s)
 =================================================
  => Coupler Component                       0.450
   -- Physics & Parameterization             0.117
   -- Diagnostics Out                        0.000
  => GEOS-Chem Column                       79.935
  ===> Total Chemistry                      80.384
  => WRF                                   309.697
  ===> Total WRF-GC                        390.081
 HOURLY EMISSIONS UPDATE TIME     3600.0       0.0
mediation_integrate: med_read_wrf_chem_emissions: Read emissions for time 2018-01-01_01:00:00
 max optd  1.9364301E+31
 max taucldi  1.1435310E-05
 max taucldw  1.4840693E-05
 Switching is not necessary as we are already
 in the right domain!
 GIGC_Chunk_Run: Running for in-PET grid #           1
 GIGC_Chunk_Run: Received new grid IM, JM, LM =          15           9
          49
 =================================================
 W R F - G C   T I M E R S
    Domain           1 (Units: s)
 =================================================
  => Coupler Component                       0.484
   -- Physics & Parameterization             0.127
   -- Diagnostics Out                        0.000
  => GEOS-Chem Column                       80.966
  ===> Total Chemistry                      81.450
  => WRF                                   327.948
  ===> Total WRF-GC                        409.398
 max optd  1.9364301E+31
 max taucldi  1.2294024E-05
 max taucldw  1.5849993E-05
 Switching is not necessary as we are already
 in the right domain!
 GIGC_Chunk_Run: Running for in-PET grid #           1
 GIGC_Chunk_Run: Received new grid IM, JM, LM =          15           9
          49
 =================================================
 W R F - G C   T I M E R S
    Domain           1 (Units: s)
 =================================================
  => Coupler Component                       0.516
   -- Physics & Parameterization             0.136
   -- Diagnostics Out                        0.000
  => GEOS-Chem Column                       82.012
  ===> Total Chemistry                      82.529
  => WRF                                   346.282
  ===> Total WRF-GC                        428.810
 max optd  1.9364301E+31
 max taucldi  1.3176705E-05
 max taucldw  1.6729029E-05
 Switching is not necessary as we are already
 in the right domain!
 GIGC_Chunk_Run: Running for in-PET grid #           1
 GIGC_Chunk_Run: Received new grid IM, JM, LM =          15           9
          49
 =================================================
 W R F - G C   T I M E R S
    Domain           1 (Units: s)
 =================================================
  => Coupler Component                       0.550
   -- Physics & Parameterization             0.145
   -- Diagnostics Out                        0.000
  => GEOS-Chem Column                       83.048
  ===> Total Chemistry                      83.598
  => WRF                                   364.476
  ===> Total WRF-GC                        448.074
 max optd  1.9364301E+31
 max taucldi  1.4054167E-05
 max taucldw  1.7446258E-05
 Switching is not necessary as we are already
 in the right domain!
 GIGC_Chunk_Run: Running for in-PET grid #           1
 GIGC_Chunk_Run: Received new grid IM, JM, LM =          15           9
          49
 =================================================
 W R F - G C   T I M E R S
    Domain           1 (Units: s)
 =================================================
  => Coupler Component                       0.586
   -- Physics & Parameterization             0.155
   -- Diagnostics Out                        0.000
  => GEOS-Chem Column                       84.084
  ===> Total Chemistry                      84.670
  => WRF                                   382.779
  ===> Total WRF-GC                        467.448
 max optd  1.9364301E+31
 max taucldi  1.4850963E-05
 max taucldw  1.8032906E-05
 Switching is not necessary as we are already
 in the right domain!
 GIGC_Chunk_Run: Running for in-PET grid #           1
 GIGC_Chunk_Run: Received new grid IM, JM, LM =          15           9
          49
 =================================================
 W R F - G C   T I M E R S
    Domain           1 (Units: s)
 =================================================
  => Coupler Component                       0.621
   -- Physics & Parameterization             0.165
   -- Diagnostics Out                        0.000
  => GEOS-Chem Column                       85.120
  ===> Total Chemistry                      85.741
  => WRF                                   401.026
  ===> Total WRF-GC                        486.767
 max optd  1.9364301E+31
 max taucldi  1.5495305E-05
 max taucldw  1.8532470E-05
 Switching is not necessary as we are already
 in the right domain!
 GIGC_Chunk_Run: Running for in-PET grid #           1
 GIGC_Chunk_Run: Received new grid IM, JM, LM =          15           9
          49
 =================================================
 W R F - G C   T I M E R S
    Domain           1 (Units: s)
 =================================================
  => Coupler Component                       0.655
   -- Physics & Parameterization             0.174
   -- Diagnostics Out                        0.000
  => GEOS-Chem Column                       86.167
  ===> Total Chemistry                      86.822
  => WRF                                   419.232
  ===> Total WRF-GC                        506.054
 max optd  1.9364301E+31
 max taucldi  1.5951504E-05
 max taucldw  1.8959388E-05
 Switching is not necessary as we are already
 in the right domain!
 GIGC_Chunk_Run: Running for in-PET grid #           1
 GIGC_Chunk_Run: Received new grid IM, JM, LM =          15           9
          49
 =================================================
 W R F - G C   T I M E R S
    Domain           1 (Units: s)
 =================================================
  => Coupler Component                       0.690
   -- Physics & Parameterization             0.183
   -- Diagnostics Out                        0.000
  => GEOS-Chem Column                       87.224
  ===> Total Chemistry                      87.914
  => WRF                                   437.497
  ===> Total WRF-GC                        525.412
 max optd  1.9364301E+31
 max taucldi  1.6206179E-05
 max taucldw  1.9307490E-05
 Switching is not necessary as we are already
 in the right domain!
 GIGC_Chunk_Run: Running for in-PET grid #           1
 GIGC_Chunk_Run: Received new grid IM, JM, LM =          15           9
          49
 =================================================
 W R F - G C   T I M E R S
    Domain           1 (Units: s)
 =================================================
  => Coupler Component                       0.731
   -- Physics & Parameterization             0.193
   -- Diagnostics Out                        0.000
  => GEOS-Chem Column                       88.258
  ===> Total Chemistry                      88.989
  => WRF                                   455.860
  ===> Total WRF-GC                        544.849
 max optd  1.9364301E+31
 max taucldi  1.6352242E-05
 max taucldw  1.9557543E-05
 Switching is not necessary as we are already
 in the right domain!
 GIGC_Chunk_Run: Running for in-PET grid #           1
 GIGC_Chunk_Run: Received new grid IM, JM, LM =          15           9
          49
 =================================================
 W R F - G C   T I M E R S
    Domain           1 (Units: s)
 =================================================
  => Coupler Component                       0.772
   -- Physics & Parameterization             0.202
   -- Diagnostics Out                        0.000
  => GEOS-Chem Column                       89.296
  ===> Total Chemistry                      90.067
  => WRF                                   473.977
  ===> Total WRF-GC                        564.044
 max optd  1.9364301E+31
 max taucldi  1.6473621E-05
 max taucldw  1.9671368E-05
 Switching is not necessary as we are already
 in the right domain!
 GIGC_Chunk_Run: Running for in-PET grid #           1
 GIGC_Chunk_Run: Received new grid IM, JM, LM =          15           9
          49
 =================================================
 W R F - G C   T I M E R S
    Domain           1 (Units: s)
 =================================================
  => Coupler Component                       0.815
   -- Physics & Parameterization             0.211
   -- Diagnostics Out                        0.000
  => GEOS-Chem Column                       90.338
  ===> Total Chemistry                      91.153
  => WRF                                   492.155
  ===> Total WRF-GC                        583.308
 max optd  1.9364301E+31
 max taucldi  1.6739972E-05
 max taucldw  1.9688257E-05
 Switching is not necessary as we are already
 in the right domain!
 GIGC_Chunk_Run: Running for in-PET grid #           1
 GIGC_Chunk_Run: Received new grid IM, JM, LM =          15           9
          49
 =================================================
 W R F - G C   T I M E R S
    Domain           1 (Units: s)
 =================================================
  => Coupler Component                       0.852
   -- Physics & Parameterization             0.220
   -- Diagnostics Out                        0.000
  => GEOS-Chem Column                       91.401
  ===> Total Chemistry                      92.253
  => WRF                                   510.466
  ===> Total WRF-GC                        602.719
 max optd  1.9364301E+31
 max taucldi  1.6956457E-05
 max taucldw  1.9624453E-05
 Switching is not necessary as we are already
 in the right domain!
 GIGC_Chunk_Run: Running for in-PET grid #           1
 GIGC_Chunk_Run: Received new grid IM, JM, LM =          15           9
          49
 =================================================
 W R F - G C   T I M E R S
    Domain           1 (Units: s)
 =================================================
  => Coupler Component                       0.895
   -- Physics & Parameterization             0.230
   -- Diagnostics Out                        0.000
  => GEOS-Chem Column                       92.457
  ===> Total Chemistry                      93.352
  => WRF                                   528.631
  ===> Total WRF-GC                        621.984
 HOURLY EMISSIONS UPDATE TIME     7200.0       0.0
mediation_integrate: med_read_wrf_chem_emissions: Read emissions for time 2018-01-01_02:00:00
 max optd  1.9364301E+31
 max taucldi  1.7143366E-05
 max taucldw  1.9516754E-05
 Switching is not necessary as we are already
 in the right domain!
 GIGC_Chunk_Run: Running for in-PET grid #           1
 GIGC_Chunk_Run: Received new grid IM, JM, LM =          15           9
          49
 =================================================
 W R F - G C   T I M E R S
    Domain           1 (Units: s)
 =================================================
  => Coupler Component                       0.932
   -- Physics & Parameterization             0.239
   -- Diagnostics Out                        0.000
  => GEOS-Chem Column                       93.531
  ===> Total Chemistry                      94.464
  => WRF                                   546.826
  ===> Total WRF-GC                        641.290
 max optd  1.9364301E+31
 max taucldi  1.7302977E-05
 max taucldw  1.9648289E-05
 Switching is not necessary as we are already
 in the right domain!
 GIGC_Chunk_Run: Running for in-PET grid #           1
 GIGC_Chunk_Run: Received new grid IM, JM, LM =          15           9
          49
 =================================================
 W R F - G C   T I M E R S
    Domain           1 (Units: s)
 =================================================
  => Coupler Component                       0.977
   -- Physics & Parameterization             0.248
   -- Diagnostics Out                        0.000
  => GEOS-Chem Column                       94.567
  ===> Total Chemistry                      95.543
  => WRF                                   565.021
  ===> Total WRF-GC                        660.564
 max optd  1.9364301E+31
 max taucldi  1.7422233E-05
 max taucldw  1.9890656E-05
 Switching is not necessary as we are already
 in the right domain!
 GIGC_Chunk_Run: Running for in-PET grid #           1
 GIGC_Chunk_Run: Received new grid IM, JM, LM =          15           9
          49
 =================================================
 W R F - G C   T I M E R S
    Domain           1 (Units: s)
 =================================================
  => Coupler Component                       1.015
   -- Physics & Parameterization             0.258
   -- Diagnostics Out                        0.000
  => GEOS-Chem Column                       95.629
  ===> Total Chemistry                      96.644
  => WRF                                   583.162
  ===> Total WRF-GC                        679.805
 max optd  1.9364301E+31
 max taucldi  1.7531022E-05
 max taucldw  2.0547921E-05
 Switching is not necessary as we are already
 in the right domain!
 GIGC_Chunk_Run: Running for in-PET grid #           1
 GIGC_Chunk_Run: Received new grid IM, JM, LM =          15           9
          49
 =================================================
 W R F - G C   T I M E R S
    Domain           1 (Units: s)
 =================================================
  => Coupler Component                       1.052
   -- Physics & Parameterization             0.267
   -- Diagnostics Out                        0.000
  => GEOS-Chem Column                       96.691
  ===> Total Chemistry                      97.743
  => WRF                                   601.261
  ===> Total WRF-GC                        699.003
 max optd  1.9364301E+31
 max taucldi  1.7624812E-05
 max taucldw  2.1137046E-05
 Switching is not necessary as we are already
 in the right domain!
 GIGC_Chunk_Run: Running for in-PET grid #           1
 GIGC_Chunk_Run: Received new grid IM, JM, LM =          15           9
          49
 =================================================
 W R F - G C   T I M E R S
    Domain           1 (Units: s)
 =================================================
  => Coupler Component                       1.090
   -- Physics & Parameterization             0.277
   -- Diagnostics Out                        0.000
  => GEOS-Chem Column                       97.744
  ===> Total Chemistry                      98.834
  => WRF                                   619.398
  ===> Total WRF-GC                        718.233
 max optd  1.9364301E+31
 max taucldi  1.7704400E-05
 max taucldw  2.1634682E-05
 Switching is not necessary as we are already
 in the right domain!
 GIGC_Chunk_Run: Running for in-PET grid #           1
 GIGC_Chunk_Run: Received new grid IM, JM, LM =          15           9
          49
 =================================================
 W R F - G C   T I M E R S
    Domain           1 (Units: s)
 =================================================
  => Coupler Component                       1.128
   -- Physics & Parameterization             0.286
   -- Diagnostics Out                        0.000
  => GEOS-Chem Column                       98.801
  ===> Total Chemistry                      99.929
  => WRF                                   637.529
  ===> Total WRF-GC                        737.458
 max optd  1.9364301E+31
 max taucldi  1.7790939E-05
 max taucldw  2.2077293E-05
 Switching is not necessary as we are already
 in the right domain!
 GIGC_Chunk_Run: Running for in-PET grid #           1
 GIGC_Chunk_Run: Received new grid IM, JM, LM =          15           9
          49
 =================================================
 W R F - G C   T I M E R S
    Domain           1 (Units: s)
 =================================================
  => Coupler Component                       1.173
   -- Physics & Parameterization             0.296
   -- Diagnostics Out                        0.000
  => GEOS-Chem Column                       99.864
  ===> Total Chemistry                     101.037
  => WRF                                   655.655
  ===> Total WRF-GC                        756.692
 max optd  1.9364301E+31
 max taucldi  1.7906288E-05
 max taucldw  2.2517208E-05
 Switching is not necessary as we are already
 in the right domain!
 GIGC_Chunk_Run: Running for in-PET grid #           1
 GIGC_Chunk_Run: Received new grid IM, JM, LM =          15           9
          49
 =================================================
 W R F - G C   T I M E R S
    Domain           1 (Units: s)
 =================================================
  => Coupler Component                       1.212
   -- Physics & Parameterization             0.306
   -- Diagnostics Out                        0.000
  => GEOS-Chem Column                      100.911
  ===> Total Chemistry                     102.123
  => WRF                                   673.743
  ===> Total WRF-GC                        775.866
 max optd  1.9364301E+31
 max taucldi  1.8044520E-05
 max taucldw  2.2860491E-05
 Switching is not necessary as we are already
 in the right domain!
 GIGC_Chunk_Run: Running for in-PET grid #           1
 GIGC_Chunk_Run: Received new grid IM, JM, LM =          15           9
          49
 =================================================
 W R F - G C   T I M E R S
    Domain           1 (Units: s)
 =================================================
  => Coupler Component                       1.249
   -- Physics & Parameterization             0.315
   -- Diagnostics Out                        0.000
  => GEOS-Chem Column                      101.977
  ===> Total Chemistry                     103.226
  => WRF                                   691.850
  ===> Total WRF-GC                        795.076
 max optd  1.9364301E+31
 max taucldi  1.8202061E-05
 max taucldw  2.3082006E-05
 Switching is not necessary as we are already
 in the right domain!
 GIGC_Chunk_Run: Running for in-PET grid #           1
 GIGC_Chunk_Run: Received new grid IM, JM, LM =          15           9
          49
 =================================================
 W R F - G C   T I M E R S
    Domain           1 (Units: s)
 =================================================
  => Coupler Component                       1.286
   -- Physics & Parameterization             0.324
   -- Diagnostics Out                        0.000
  => GEOS-Chem Column                      103.034
  ===> Total Chemistry                     104.320
  => WRF                                   709.977
  ===> Total WRF-GC                        814.297
 max optd  1.9364301E+31
 max taucldi  1.8373623E-05
 max taucldw  2.3222532E-05
 Switching is not necessary as we are already
 in the right domain!
 GIGC_Chunk_Run: Running for in-PET grid #           1
 GIGC_Chunk_Run: Received new grid IM, JM, LM =          15           9
          49
 =================================================
 W R F - G C   T I M E R S
    Domain           1 (Units: s)
 =================================================
  => Coupler Component                       1.324
   -- Physics & Parameterization             0.334
   -- Diagnostics Out                        0.000
  => GEOS-Chem Column                      104.092
  ===> Total Chemistry                     105.416
  => WRF                                   728.043
  ===> Total WRF-GC                        833.460
 max optd  1.9364301E+31
 max taucldi  1.8530172E-05
 max taucldw  2.3291464E-05
 Switching is not necessary as we are already
 in the right domain!
 GIGC_Chunk_Run: Running for in-PET grid #           1
 GIGC_Chunk_Run: Received new grid IM, JM, LM =          15           9
          49
 =================================================
 W R F - G C   T I M E R S
    Domain           1 (Units: s)
 =================================================
  => Coupler Component                       1.360
   -- Physics & Parameterization             0.343
   -- Diagnostics Out                        0.000
  => GEOS-Chem Column                      105.163
  ===> Total Chemistry                     106.523
  => WRF                                   746.111
  ===> Total WRF-GC                        852.634
 HOURLY EMISSIONS UPDATE TIME    10800.0       0.0
mediation_integrate: med_read_wrf_chem_emissions: Read emissions for time 2018-01-01_03:00:00
 max optd  1.9364301E+31
 max taucldi  1.8679339E-05
 max taucldw  2.3316497E-05
 Switching is not necessary as we are already
 in the right domain!
 GIGC_Chunk_Run: Running for in-PET grid #           1
 GIGC_Chunk_Run: Received new grid IM, JM, LM =          15           9
          49
 =================================================
 W R F - G C   T I M E R S
    Domain           1 (Units: s)
 =================================================
  => Coupler Component                       1.398
   -- Physics & Parameterization             0.352
   -- Diagnostics Out                        0.000
  => GEOS-Chem Column                      106.208
  ===> Total Chemistry                     107.606
  => WRF                                   764.230
  ===> Total WRF-GC                        871.836
 max optd  1.9364301E+31
 max taucldi  1.8824076E-05
 max taucldw  2.3344397E-05
 Switching is not necessary as we are already
 in the right domain!
 GIGC_Chunk_Run: Running for in-PET grid #           1
 GIGC_Chunk_Run: Received new grid IM, JM, LM =          15           9
          49
 =================================================
 W R F - G C   T I M E R S
    Domain           1 (Units: s)
 =================================================
  => Coupler Component                       1.437
   -- Physics & Parameterization             0.362
   -- Diagnostics Out                        0.000
  => GEOS-Chem Column                      107.272
  ===> Total Chemistry                     108.709
  => WRF                                   782.325
  ===> Total WRF-GC                        891.033
 max optd  1.9364301E+31
 max taucldi  1.8960069E-05
 max taucldw  2.3389801E-05
 Switching is not necessary as we are already
 in the right domain!
 GIGC_Chunk_Run: Running for in-PET grid #           1
 GIGC_Chunk_Run: Received new grid IM, JM, LM =          15           9
          49
 =================================================
 W R F - G C   T I M E R S
    Domain           1 (Units: s)
 =================================================
  => Coupler Component                       1.474
   -- Physics & Parameterization             0.371
   -- Diagnostics Out                        0.000
  => GEOS-Chem Column                      108.324
  ===> Total Chemistry                     109.799
  => WRF                                   800.426
  ===> Total WRF-GC                        910.224
 max optd  1.9364301E+31
 max taucldi  1.9070801E-05
 max taucldw  2.3467062E-05
 Switching is not necessary as we are already
 in the right domain!
 GIGC_Chunk_Run: Running for in-PET grid #           1
 GIGC_Chunk_Run: Received new grid IM, JM, LM =          15           9
          49
 =================================================
 W R F - G C   T I M E R S
    Domain           1 (Units: s)
 =================================================
  => Coupler Component                       1.510
   -- Physics & Parameterization             0.380
   -- Diagnostics Out                        0.000
  => GEOS-Chem Column                      109.388
  ===> Total Chemistry                     110.898
  => WRF                                   818.517
  ===> Total WRF-GC                        929.415
 max optd  1.9364301E+31
 max taucldi  1.9150149E-05
 max taucldw  2.3553936E-05
 Switching is not necessary as we are already
 in the right domain!
 GIGC_Chunk_Run: Running for in-PET grid #           1
 GIGC_Chunk_Run: Received new grid IM, JM, LM =          15           9
          49
 =================================================
 W R F - G C   T I M E R S
    Domain           1 (Units: s)
 =================================================
  => Coupler Component                       1.546
   -- Physics & Parameterization             0.390
   -- Diagnostics Out                        0.000
  => GEOS-Chem Column                      110.458
  ===> Total Chemistry                     112.005
  => WRF                                   836.567
  ===> Total WRF-GC                        948.572
 max optd  1.9364301E+31
 max taucldi  1.9223213E-05
 max taucldw  2.3673376E-05
 Switching is not necessary as we are already
 in the right domain!
 GIGC_Chunk_Run: Running for in-PET grid #           1
 GIGC_Chunk_Run: Received new grid IM, JM, LM =          15           9
          49
 =================================================
 W R F - G C   T I M E R S
    Domain           1 (Units: s)
 =================================================
  => Coupler Component                       1.582
   -- Physics & Parameterization             0.399
   -- Diagnostics Out                        0.000
  => GEOS-Chem Column                      111.525
  ===> Total Chemistry                     113.107
  => WRF                                   854.894
  ===> Total WRF-GC                        968.001
 max optd  1.9364301E+31
 max taucldi  1.9289535E-05
 max taucldw  2.3823088E-05
 Switching is not necessary as we are already
 in the right domain!
 GIGC_Chunk_Run: Running for in-PET grid #           1
 GIGC_Chunk_Run: Received new grid IM, JM, LM =          15           9
          49
 =================================================
 W R F - G C   T I M E R S
    Domain           1 (Units: s)
 =================================================
  => Coupler Component                       1.626
   -- Physics & Parameterization             0.409
   -- Diagnostics Out                        0.000
  => GEOS-Chem Column                      112.584
  ===> Total Chemistry                     114.210
  => WRF                                   873.049
  ===> Total WRF-GC                        987.259
 max optd  1.9364301E+31
 max taucldi  1.9344585E-05
 max taucldw  2.3991741E-05
 Switching is not necessary as we are already
 in the right domain!
 GIGC_Chunk_Run: Running for in-PET grid #           1
 GIGC_Chunk_Run: Received new grid IM, JM, LM =          15           9
          49
 =================================================
 W R F - G C   T I M E R S
    Domain           1 (Units: s)
 =================================================
  => Coupler Component                       1.664
   -- Physics & Parameterization             0.418
   -- Diagnostics Out                        0.000
  => GEOS-Chem Column                      113.638
  ===> Total Chemistry                     115.302
  => WRF                                   891.094
  ===> Total WRF-GC                       1006.396
 max optd  1.9364301E+31
 max taucldi  1.9392059E-05
 max taucldw  2.4183817E-05
 Switching is not necessary as we are already
 in the right domain!
 GIGC_Chunk_Run: Running for in-PET grid #           1
 GIGC_Chunk_Run: Received new grid IM, JM, LM =          15           9
          49
 =================================================
 W R F - G C   T I M E R S
    Domain           1 (Units: s)
 =================================================
  => Coupler Component                       1.701
   -- Physics & Parameterization             0.428
   -- Diagnostics Out                        0.000
  => GEOS-Chem Column                      114.710
  ===> Total Chemistry                     116.410
  => WRF                                   909.302
  ===> Total WRF-GC                       1025.712
 max optd  1.9364301E+31
 max taucldi  1.9433552E-05
 max taucldw  2.4390181E-05
 Switching is not necessary as we are already
 in the right domain!
 GIGC_Chunk_Run: Running for in-PET grid #           1
 GIGC_Chunk_Run: Received new grid IM, JM, LM =          15           9
          49
 =================================================
 W R F - G C   T I M E R S
    Domain           1 (Units: s)
 =================================================
  => Coupler Component                       1.747
   -- Physics & Parameterization             0.437
   -- Diagnostics Out                        0.000
  => GEOS-Chem Column                      115.744
  ===> Total Chemistry                     117.491
  => WRF                                   927.416
  ===> Total WRF-GC                       1044.908
 max optd  1.9364301E+31
 max taucldi  1.9470754E-05
 max taucldw  2.4582525E-05
 Switching is not necessary as we are already
 in the right domain!
 GIGC_Chunk_Run: Running for in-PET grid #           1
 GIGC_Chunk_Run: Received new grid IM, JM, LM =          15           9
          49
 =================================================
 W R F - G C   T I M E R S
    Domain           1 (Units: s)
 =================================================
  => Coupler Component                       1.793
   -- Physics & Parameterization             0.447
   -- Diagnostics Out                        0.000
  => GEOS-Chem Column                      116.806
  ===> Total Chemistry                     118.599
  => WRF                                   945.533
  ===> Total WRF-GC                       1064.132
 max optd  1.9364301E+31
 max taucldi  1.9517265E-05
 max taucldw  2.4774647E-05
 Switching is not necessary as we are already
 in the right domain!
 GIGC_Chunk_Run: Running for in-PET grid #           1
 GIGC_Chunk_Run: Received new grid IM, JM, LM =          15           9
          49
 =================================================
 W R F - G C   T I M E R S
    Domain           1 (Units: s)
 =================================================
  => Coupler Component                       1.830
   -- Physics & Parameterization             0.456
   -- Diagnostics Out                        0.000
  => GEOS-Chem Column                      117.878
  ===> Total Chemistry                     119.709
  => WRF                                   963.651
  ===> Total WRF-GC                       1083.360
 HOURLY EMISSIONS UPDATE TIME    14400.0       0.0
mediation_integrate: med_read_wrf_chem_emissions: Read emissions for time 2018-01-01_04:00:00
 max optd  1.9364301E+31
 max taucldi  1.9594283E-05
 max taucldw  2.4986077E-05
 Switching is not necessary as we are already
 in the right domain!
 GIGC_Chunk_Run: Running for in-PET grid #           1
 GIGC_Chunk_Run: Received new grid IM, JM, LM =          15           9
          49
 =================================================
 W R F - G C   T I M E R S
    Domain           1 (Units: s)
 =================================================
  => Coupler Component                       1.866
   -- Physics & Parameterization             0.466
   -- Diagnostics Out                        0.000
  => GEOS-Chem Column                      118.954
  ===> Total Chemistry                     120.820
  => WRF                                   981.780
  ===> Total WRF-GC                       1102.600
 max optd  1.9364301E+31
 max taucldi  1.9674049E-05
 max taucldw  2.5188818E-05
 Switching is not necessary as we are already
 in the right domain!
 GIGC_Chunk_Run: Running for in-PET grid #           1
 GIGC_Chunk_Run: Received new grid IM, JM, LM =          15           9
          49
 =================================================
 W R F - G C   T I M E R S
    Domain           1 (Units: s)
 =================================================
  => Coupler Component                       1.904
   -- Physics & Parameterization             0.476
   -- Diagnostics Out                        0.000
  => GEOS-Chem Column                      120.020
  ===> Total Chemistry                     121.925
  => WRF                                   999.896
  ===> Total WRF-GC                       1121.820
 max optd  1.9364301E+31
 max taucldi  1.9917550E-05
 max taucldw  2.5370353E-05
 Switching is not necessary as we are already
 in the right domain!
 GIGC_Chunk_Run: Running for in-PET grid #           1
 GIGC_Chunk_Run: Received new grid IM, JM, LM =          15           9
          49
 =================================================
 W R F - G C   T I M E R S
    Domain           1 (Units: s)
 =================================================
  => Coupler Component                       1.957
   -- Physics & Parameterization             0.486
   -- Diagnostics Out                        0.000
  => GEOS-Chem Column                      121.057
  ===> Total Chemistry                     123.015
  => WRF                                  1018.089
  ===> Total WRF-GC                       1141.104
 max optd  1.9364301E+31
 max taucldi  2.0345804E-05
 max taucldw  2.5542100E-05
 Switching is not necessary as we are already
 in the right domain!
 GIGC_Chunk_Run: Running for in-PET grid #           1
 GIGC_Chunk_Run: Received new grid IM, JM, LM =          15           9
          49
 =================================================
 W R F - G C   T I M E R S
    Domain           1 (Units: s)
 =================================================
  => Coupler Component                       1.996
   -- Physics & Parameterization             0.495
   -- Diagnostics Out                        0.000
  => GEOS-Chem Column                      122.101
  ===> Total Chemistry                     124.097
  => WRF                                  1036.233
  ===> Total WRF-GC                       1160.330
 max optd  1.9364301E+31
 max taucldi  2.0706677E-05
 max taucldw  2.5703386E-05
 Switching is not necessary as we are already
 in the right domain!
 GIGC_Chunk_Run: Running for in-PET grid #           1
 GIGC_Chunk_Run: Received new grid IM, JM, LM =          15           9
          49
 =================================================
 W R F - G C   T I M E R S
    Domain           1 (Units: s)
 =================================================
  => Coupler Component                       2.033
   -- Physics & Parameterization             0.504
   -- Diagnostics Out                        0.000
  => GEOS-Chem Column                      123.159
  ===> Total Chemistry                     125.192
  => WRF                                  1054.376
  ===> Total WRF-GC                       1179.568
 max optd  1.9364301E+31
 max taucldi  2.1000980E-05
 max taucldw  2.5836431E-05
 Switching is not necessary as we are already
 in the right domain!
 GIGC_Chunk_Run: Running for in-PET grid #           1
 GIGC_Chunk_Run: Received new grid IM, JM, LM =          15           9
          49
 =================================================
 W R F - G C   T I M E R S
    Domain           1 (Units: s)
 =================================================
  => Coupler Component                       2.073
   -- Physics & Parameterization             0.514
   -- Diagnostics Out                        0.000
  => GEOS-Chem Column                      124.220
  ===> Total Chemistry                     126.292
  => WRF                                  1072.519
  ===> Total WRF-GC                       1198.811
 max optd  1.9364301E+31
 max taucldi  2.1227284E-05
 max taucldw  2.5934794E-05
 Switching is not necessary as we are already
 in the right domain!
 GIGC_Chunk_Run: Running for in-PET grid #           1
 GIGC_Chunk_Run: Received new grid IM, JM, LM =          15           9
          49
 =================================================
 W R F - G C   T I M E R S
    Domain           1 (Units: s)
 =================================================
  => Coupler Component                       2.111
   -- Physics & Parameterization             0.523
   -- Diagnostics Out                        0.000
  => GEOS-Chem Column                      125.290
  ===> Total Chemistry                     127.401
  => WRF                                  1090.702
  ===> Total WRF-GC                       1218.103
 max optd  1.9364301E+31
 max taucldi  2.1383687E-05
 max taucldw  2.6003896E-05
 Switching is not necessary as we are already
 in the right domain!
 GIGC_Chunk_Run: Running for in-PET grid #           1
 GIGC_Chunk_Run: Received new grid IM, JM, LM =          15           9
          49
 =================================================
 W R F - G C   T I M E R S
    Domain           1 (Units: s)
 =================================================
  => Coupler Component                       2.147
   -- Physics & Parameterization             0.532
   -- Diagnostics Out                        0.000
  => GEOS-Chem Column                      126.361
  ===> Total Chemistry                     128.509
  => WRF                                  1108.799
  ===> Total WRF-GC                       1237.307
 max optd  1.9364301E+31
 max taucldi  2.1456841E-05
 max taucldw  2.6051193E-05
 Switching is not necessary as we are already
 in the right domain!
 GIGC_Chunk_Run: Running for in-PET grid #           1
 GIGC_Chunk_Run: Received new grid IM, JM, LM =          15           9
          49
 =================================================
 W R F - G C   T I M E R S
    Domain           1 (Units: s)
 =================================================
  => Coupler Component                       2.192
   -- Physics & Parameterization             0.542
   -- Diagnostics Out                        0.000
  => GEOS-Chem Column                      127.427
  ===> Total Chemistry                     129.619
  => WRF                                  1126.923
  ===> Total WRF-GC                       1256.542
 max optd  1.9364301E+31
 max taucldi  2.1878990E-05
 max taucldw  2.6084779E-05
 Switching is not necessary as we are already
 in the right domain!
 GIGC_Chunk_Run: Running for in-PET grid #           1
 GIGC_Chunk_Run: Received new grid IM, JM, LM =          15           9
          49
 =================================================
 W R F - G C   T I M E R S
    Domain           1 (Units: s)
 =================================================
  => Coupler Component                       2.231
   -- Physics & Parameterization             0.552
   -- Diagnostics Out                        0.000
  => GEOS-Chem Column                      128.469
  ===> Total Chemistry                     130.700
  => WRF                                  1145.042
  ===> Total WRF-GC                       1275.742
 max optd  1.9364301E+31
 max taucldi  2.2238817E-05
 max taucldw  2.6189209E-05
 Switching is not necessary as we are already
 in the right domain!
 GIGC_Chunk_Run: Running for in-PET grid #           1
 GIGC_Chunk_Run: Received new grid IM, JM, LM =          15           9
          49
 =================================================
 W R F - G C   T I M E R S
    Domain           1 (Units: s)
 =================================================
  => Coupler Component                       2.271
   -- Physics & Parameterization             0.561
   -- Diagnostics Out                        0.000
  => GEOS-Chem Column                      129.544
  ===> Total Chemistry                     131.815
  => WRF                                  1163.135
  ===> Total WRF-GC                       1294.950
 max optd  1.9364301E+31
 max taucldi  2.2508302E-05
 max taucldw  2.6459389E-05
 Switching is not necessary as we are already
 in the right domain!
 GIGC_Chunk_Run: Running for in-PET grid #           1
 GIGC_Chunk_Run: Received new grid IM, JM, LM =          15           9
          49
 =================================================
 W R F - G C   T I M E R S
    Domain           1 (Units: s)
 =================================================
  => Coupler Component                       2.308
   -- Physics & Parameterization             0.571
   -- Diagnostics Out                        0.000
  => GEOS-Chem Column                      130.618
  ===> Total Chemistry                     132.926
  => WRF                                  1181.174
  ===> Total WRF-GC                       1314.100
 HOURLY EMISSIONS UPDATE TIME    18000.0       0.0
mediation_integrate: med_read_wrf_chem_emissions: Read emissions for time 2018-01-01_05:00:00
 max optd  1.9364301E+31
 max taucldi  2.2703294E-05
 max taucldw  2.6673904E-05
 Switching is not necessary as we are already
 in the right domain!
 GIGC_Chunk_Run: Running for in-PET grid #           1
 GIGC_Chunk_Run: Received new grid IM, JM, LM =          15           9
          49
 =================================================
 W R F - G C   T I M E R S
    Domain           1 (Units: s)
 =================================================
  => Coupler Component                       2.346
   -- Physics & Parameterization             0.580
   -- Diagnostics Out                        0.000
  => GEOS-Chem Column                      131.669
  ===> Total Chemistry                     134.015
  => WRF                                  1199.318
  ===> Total WRF-GC                       1333.334
 max optd  1.9364301E+31
 max taucldi  2.2829294E-05
 max taucldw  2.6808628E-05
 Switching is not necessary as we are already
 in the right domain!
 GIGC_Chunk_Run: Running for in-PET grid #           1
 GIGC_Chunk_Run: Received new grid IM, JM, LM =          15           9
          49
 =================================================
 W R F - G C   T I M E R S
    Domain           1 (Units: s)
 =================================================
  => Coupler Component                       2.389
   -- Physics & Parameterization             0.590
   -- Diagnostics Out                        0.000
  => GEOS-Chem Column                      132.730
  ===> Total Chemistry                     135.119
  => WRF                                  1217.428
  ===> Total WRF-GC                       1352.547
 max optd  1.9364301E+31
 max taucldi  2.2893319E-05
 max taucldw  2.6883705E-05
 Switching is not necessary as we are already
 in the right domain!
 GIGC_Chunk_Run: Running for in-PET grid #           1
 GIGC_Chunk_Run: Received new grid IM, JM, LM =          15           9
          49
 =================================================
 W R F - G C   T I M E R S
    Domain           1 (Units: s)
 =================================================
  => Coupler Component                       2.428
   -- Physics & Parameterization             0.599
   -- Diagnostics Out                        0.000
  => GEOS-Chem Column                      133.792
  ===> Total Chemistry                     136.221
  => WRF                                  1235.512
  ===> Total WRF-GC                       1371.732
 max optd  1.9364301E+31
 max taucldi  2.2899769E-05
 max taucldw  2.6943510E-05
 Switching is not necessary as we are already
 in the right domain!
 GIGC_Chunk_Run: Running for in-PET grid #           1
 GIGC_Chunk_Run: Received new grid IM, JM, LM =          15           9
          49
 =================================================
 W R F - G C   T I M E R S
    Domain           1 (Units: s)
 =================================================
  => Coupler Component                       2.475
   -- Physics & Parameterization             0.608
   -- Diagnostics Out                        0.000
  => GEOS-Chem Column                      134.849
  ===> Total Chemistry                     137.324
  => WRF                                  1253.645
  ===> Total WRF-GC                       1390.969
 max optd  1.9364301E+31
 max taucldi  2.2850420E-05
 max taucldw  2.7002427E-05
 Switching is not necessary as we are already
 in the right domain!
 GIGC_Chunk_Run: Running for in-PET grid #           1
 GIGC_Chunk_Run: Received new grid IM, JM, LM =          15           9
          49
 =================================================
 W R F - G C   T I M E R S
    Domain           1 (Units: s)
 =================================================
  => Coupler Component                       2.510
   -- Physics & Parameterization             0.617
   -- Diagnostics Out                        0.000
  => GEOS-Chem Column                      135.905
  ===> Total Chemistry                     138.416
  => WRF                                  1271.812
  ===> Total WRF-GC                       1410.228
 max optd  1.9364301E+31
 max taucldi  2.2744645E-05
 max taucldw  2.7039106E-05
 Switching is not necessary as we are already
 in the right domain!
 GIGC_Chunk_Run: Running for in-PET grid #           1
 GIGC_Chunk_Run: Received new grid IM, JM, LM =          15           9
          49
 =================================================
 W R F - G C   T I M E R S
    Domain           1 (Units: s)
 =================================================
  => Coupler Component                       2.560
   -- Physics & Parameterization             0.627
   -- Diagnostics Out                        0.000
  => GEOS-Chem Column                      136.951
  ===> Total Chemistry                     139.510
  => WRF                                  1289.899
  ===> Total WRF-GC                       1429.409
 max optd  1.9364301E+31
 max taucldi  2.2579296E-05
 max taucldw  2.7024960E-05
 Switching is not necessary as we are already
 in the right domain!
 GIGC_Chunk_Run: Running for in-PET grid #           1
 GIGC_Chunk_Run: Received new grid IM, JM, LM =          15           9
          49
 =================================================
 W R F - G C   T I M E R S
    Domain           1 (Units: s)
 =================================================
  => Coupler Component                       2.597
   -- Physics & Parameterization             0.637
   -- Diagnostics Out                        0.000
  => GEOS-Chem Column                      138.023
  ===> Total Chemistry                     140.620
  => WRF                                  1308.090
  ===> Total WRF-GC                       1448.710
 max optd  1.9364301E+31
 max taucldi  2.2353106E-05
 max taucldw  2.6962301E-05
 Switching is not necessary as we are already
 in the right domain!
 GIGC_Chunk_Run: Running for in-PET grid #           1
 GIGC_Chunk_Run: Received new grid IM, JM, LM =          15           9
          49
 =================================================
 W R F - G C   T I M E R S
    Domain           1 (Units: s)
 =================================================
  => Coupler Component                       2.636
   -- Physics & Parameterization             0.646
   -- Diagnostics Out                        0.000
  => GEOS-Chem Column                      139.070
  ===> Total Chemistry                     141.706
  => WRF                                  1326.181
  ===> Total WRF-GC                       1467.887
 max optd  1.9364301E+31
 max taucldi  2.2480830E-05
 max taucldw  2.6884827E-05
 Switching is not necessary as we are already
 in the right domain!
 GIGC_Chunk_Run: Running for in-PET grid #           1
 GIGC_Chunk_Run: Received new grid IM, JM, LM =          15           9
          49
 =================================================
 W R F - G C   T I M E R S
    Domain           1 (Units: s)
 =================================================
  => Coupler Component                       2.674
   -- Physics & Parameterization             0.655
   -- Diagnostics Out                        0.000
  => GEOS-Chem Column                      140.140
  ===> Total Chemistry                     142.814
  => WRF                                  1344.358
  ===> Total WRF-GC                       1487.171
 max optd  1.9364301E+31
 max taucldi  2.2565226E-05
 max taucldw  2.7110607E-05
 Switching is not necessary as we are already
 in the right domain!
 GIGC_Chunk_Run: Running for in-PET grid #           1
 GIGC_Chunk_Run: Received new grid IM, JM, LM =          15           9
          49
 =================================================
 W R F - G C   T I M E R S
    Domain           1 (Units: s)
 =================================================
  => Coupler Component                       2.711
   -- Physics & Parameterization             0.665
   -- Diagnostics Out                        0.000
  => GEOS-Chem Column                      141.211
  ===> Total Chemistry                     143.922
  => WRF                                  1362.748
  ===> Total WRF-GC                       1506.670
 max optd  1.9364301E+31
 max taucldi  2.2554474E-05
 max taucldw  2.7529893E-05
 Switching is not necessary as we are already
 in the right domain!
 GIGC_Chunk_Run: Running for in-PET grid #           1
 GIGC_Chunk_Run: Received new grid IM, JM, LM =          15           9
          49
 =================================================
 W R F - G C   T I M E R S
    Domain           1 (Units: s)
 =================================================
  => Coupler Component                       2.751
   -- Physics & Parameterization             0.675
   -- Diagnostics Out                        0.000
  => GEOS-Chem Column                      142.249
  ===> Total Chemistry                     145.000
  => WRF                                  1380.858
  ===> Total WRF-GC                       1525.859
 max optd  1.9364301E+31
 max taucldi  2.2564931E-05
 max taucldw  2.7919608E-05
 Switching is not necessary as we are already
 in the right domain!
 GIGC_Chunk_Run: Running for in-PET grid #           1
 GIGC_Chunk_Run: Received new grid IM, JM, LM =          15           9
          49
 =================================================
 W R F - G C   T I M E R S
    Domain           1 (Units: s)
 =================================================
  => Coupler Component                       2.788
   -- Physics & Parameterization             0.684
   -- Diagnostics Out                        0.000
  => GEOS-Chem Column                      143.312
  ===> Total Chemistry                     146.100
  => WRF                                  1399.000
  ===> Total WRF-GC                       1545.099
 HOURLY EMISSIONS UPDATE TIME    21600.0       0.0
mediation_integrate: med_read_wrf_chem_emissions: Read emissions for time 2018-01-01_06:00:00
 max optd  1.9364301E+31
 max taucldi  2.2688118E-05
 max taucldw  2.8289662E-05
 Switching is not necessary as we are already
 in the right domain!
 GIGC_Chunk_Run: Running for in-PET grid #           1
 GIGC_Chunk_Run: Received new grid IM, JM, LM =          15           9
          49
 =================================================
 W R F - G C   T I M E R S
    Domain           1 (Units: s)
 =================================================
  => Coupler Component                       2.827
   -- Physics & Parameterization             0.694
   -- Diagnostics Out                        0.000
  => GEOS-Chem Column                      144.362
  ===> Total Chemistry                     147.189
  => WRF                                  1857.669
  ===> Total WRF-GC                       2004.858
 max optd  1.9364301E+31
 max taucldi  2.2732944E-05
 max taucldw  2.8629622E-05
 Switching is not necessary as we are already
 in the right domain!
 GIGC_Chunk_Run: Running for in-PET grid #           1
 GIGC_Chunk_Run: Received new grid IM, JM, LM =          15           9
          49
 =================================================
 W R F - G C   T I M E R S
    Domain           1 (Units: s)
 =================================================
  => Coupler Component                       2.867
   -- Physics & Parameterization             0.703
   -- Diagnostics Out                        0.000
  => GEOS-Chem Column                      145.429
  ===> Total Chemistry                     148.295
  => WRF                                  1875.811
  ===> Total WRF-GC                       2024.106
 max optd  1.9364301E+31
 max taucldi  2.2727338E-05
 max taucldw  2.8921642E-05
 Switching is not necessary as we are already
 in the right domain!
 GIGC_Chunk_Run: Running for in-PET grid #           1
 GIGC_Chunk_Run: Received new grid IM, JM, LM =          15           9
          49
 =================================================
 W R F - G C   T I M E R S
    Domain           1 (Units: s)
 =================================================
  => Coupler Component                       2.906
   -- Physics & Parameterization             0.713
   -- Diagnostics Out                        0.000
  => GEOS-Chem Column                      146.490
  ===> Total Chemistry                     149.396
  => WRF                                  1894.069
  ===> Total WRF-GC                       2043.465
 max optd  1.9364301E+31
 max taucldi  2.3022641E-05
 max taucldw  2.9157878E-05
 Switching is not necessary as we are already
 in the right domain!
 GIGC_Chunk_Run: Running for in-PET grid #           1
 GIGC_Chunk_Run: Received new grid IM, JM, LM =          15           9
          49
 =================================================
 W R F - G C   T I M E R S
    Domain           1 (Units: s)
 =================================================
  => Coupler Component                       2.952
[...]
  => GEOS-Chem Column                      193.797
  ===> Total Chemistry                     198.635
  => WRF                                  2712.019
  ===> Total WRF-GC                       2910.654
 HOURLY EMISSIONS UPDATE TIME    36000.0       0.0
mediation_integrate: med_read_wrf_chem_emissions: Read emissions for time 2018-01-01_10:00:00
 max optd  1.9364301E+31
 max taucldi  2.3919980E-05
 max taucldw  3.1338255E-05
 Switching is not necessary as we are already
 in the right domain!
 GIGC_Chunk_Run: Running for in-PET grid #           1
 GIGC_Chunk_Run: Received new grid IM, JM, LM =          15           9
          49
 =================================================
 W R F - G C   T I M E R S
    Domain           1 (Units: s)
 =================================================
  => Coupler Component                       4.885
   -- Physics & Parameterization             1.167
   -- Diagnostics Out                        0.000
  => GEOS-Chem Column                      194.854
  ===> Total Chemistry                     199.738
  => WRF                                  2730.262
  ===> Total WRF-GC                       2930.000
 max optd  1.9364301E+31
 max taucldi  2.3821325E-05
 max taucldw  3.1465999E-05
 Switching is not necessary as we are already
 in the right domain!
 GIGC_Chunk_Run: Running for in-PET grid #           1
 GIGC_Chunk_Run: Received new grid IM, JM, LM =          15           9
          49
 =================================================
 W R F - G C   T I M E R S
    Domain           1 (Units: s)
 =================================================
  => Coupler Component                       4.925
   -- Physics & Parameterization             1.176
   -- Diagnostics Out                        0.000
  => GEOS-Chem Column                      195.915
  ===> Total Chemistry                     200.841
  => WRF                                  2748.404
  ===> Total WRF-GC                       2949.245
 max optd  1.9364301E+31
 max taucldi  2.3716109E-05
 max taucldw  3.1606596E-05
 Switching is not necessary as we are already
 in the right domain!
 GIGC_Chunk_Run: Running for in-PET grid #           1
 GIGC_Chunk_Run: Received new grid IM, JM, LM =          15           9
          49
 =================================================
 W R F - G C   T I M E R S
    Domain           1 (Units: s)
 =================================================
  => Coupler Component                       4.968
   -- Physics & Parameterization             1.186
   -- Diagnostics Out                        0.000
  => GEOS-Chem Column                      196.980
  ===> Total Chemistry                     201.948
  => WRF                                  2766.532
  ===> Total WRF-GC                       2968.480
 max optd  1.9364301E+31
 max taucldi  2.3603574E-05
 max taucldw  3.1736756E-05
 Switching is not necessary as we are already
 in the right domain!
 GIGC_Chunk_Run: Running for in-PET grid #           1
 GIGC_Chunk_Run: Received new grid IM, JM, LM =          15           9
          49
 =================================================
 W R F - G C   T I M E R S
    Domain           1 (Units: s)
 =================================================
  => Coupler Component                       5.009
   -- Physics & Parameterization             1.196
   -- Diagnostics Out                        0.000
  => GEOS-Chem Column                      198.032
  ===> Total Chemistry                     203.040
  => WRF                                  2784.757
  ===> Total WRF-GC                       2987.797
 max optd  1.9364301E+31
 max taucldi  2.3446106E-05
 max taucldw  3.1849468E-05
 Switching is not necessary as we are already
 in the right domain!
 GIGC_Chunk_Run: Running for in-PET grid #           1
 GIGC_Chunk_Run: Received new grid IM, JM, LM =          15           9
          49
 =================================================
 W R F - G C   T I M E R S
    Domain           1 (Units: s)
 =================================================
  => Coupler Component                       5.046
   -- Physics & Parameterization             1.206
   -- Diagnostics Out                        0.000
  => GEOS-Chem Column                      199.103
  ===> Total Chemistry                     204.149
  => WRF                                  2802.940
  ===> Total WRF-GC                       3007.089
 max optd  1.9364301E+31
 max taucldi  2.3281556E-05
 max taucldw  3.1942131E-05
 Switching is not necessary as we are already
 in the right domain!
 GIGC_Chunk_Run: Running for in-PET grid #           1
 GIGC_Chunk_Run: Received new grid IM, JM, LM =          15           9
          49
 =================================================
 W R F - G C   T I M E R S
    Domain           1 (Units: s)
 =================================================
  => Coupler Component                       5.092
   -- Physics & Parameterization             1.217
   -- Diagnostics Out                        0.000
  => GEOS-Chem Column                      200.132
  ===> Total Chemistry                     205.223
  => WRF                                  2821.011
  ===> Total WRF-GC                       3026.235
 max optd  1.9364301E+31
 max taucldi  2.3119472E-05
 max taucldw  3.2017291E-05
 Switching is not necessary as we are already
 in the right domain!
 GIGC_Chunk_Run: Running for in-PET grid #           1
 GIGC_Chunk_Run: Received new grid IM, JM, LM =          15           9
          49
 =================================================
 W R F - G C   T I M E R S
    Domain           1 (Units: s)
 =================================================
  => Coupler Component                       5.141
   -- Physics & Parameterization             1.227
   -- Diagnostics Out                        0.000
  => GEOS-Chem Column                      201.173
  ===> Total Chemistry                     206.314
  => WRF                                  2839.224
  ===> Total WRF-GC                       3045.537
 max optd  1.9364301E+31
 max taucldi  2.2949822E-05
 max taucldw  3.2077063E-05
 Switching is not necessary as we are already
 in the right domain!
 GIGC_Chunk_Run: Running for in-PET grid #           1
 GIGC_Chunk_Run: Received new grid IM, JM, LM =          15           9
          49
 =================================================
 W R F - G C   T I M E R S
    Domain           1 (Units: s)
 =================================================
  => Coupler Component                       5.184
   -- Physics & Parameterization             1.237
   -- Diagnostics Out                        0.000
  => GEOS-Chem Column                      202.237
  ===> Total Chemistry                     207.422
  => WRF                                  2857.390
  ===> Total WRF-GC                       3064.812
 max optd  1.9364301E+31
 max taucldi  2.2739652E-05
 max taucldw  3.2114109E-05
 Switching is not necessary as we are already
 in the right domain!
 GIGC_Chunk_Run: Running for in-PET grid #           1
 GIGC_Chunk_Run: Received new grid IM, JM, LM =          15           9
          49
 =================================================
 W R F - G C   T I M E R S
    Domain           1 (Units: s)
 =================================================
  => Coupler Component                       5.224
   -- Physics & Parameterization             1.247
   -- Diagnostics Out                        0.000
  => GEOS-Chem Column                      203.311
  ===> Total Chemistry                     208.536
  => WRF                                  2875.510
  ===> Total WRF-GC                       3084.046
 max optd  1.9364301E+31
 max taucldi  2.2469874E-05
 max taucldw  3.2122920E-05
 Switching is not necessary as we are already
 in the right domain!
 GIGC_Chunk_Run: Running for in-PET grid #           1
 GIGC_Chunk_Run: Received new grid IM, JM, LM =          15           9
          49
 =================================================
 W R F - G C   T I M E R S
    Domain           1 (Units: s)
 =================================================
  => Coupler Component                       5.267
   -- Physics & Parameterization             1.257
   -- Diagnostics Out                        0.000
  => GEOS-Chem Column                      204.374
  ===> Total Chemistry                     209.641
  => WRF                                  2893.694
  ===> Total WRF-GC                       3103.335
 max optd  1.9364301E+31
 max taucldi  2.2159922E-05
 max taucldw  3.2110780E-05
 Switching is not necessary as we are already
 in the right domain!
 GIGC_Chunk_Run: Running for in-PET grid #           1
 GIGC_Chunk_Run: Received new grid IM, JM, LM =          15           9
          49
 =================================================
 W R F - G C   T I M E R S
    Domain           1 (Units: s)
 =================================================
  => Coupler Component                       5.309
   -- Physics & Parameterization             1.267
   -- Diagnostics Out                        0.000
  => GEOS-Chem Column                      205.437
  ===> Total Chemistry                     210.746
  => WRF                                  2911.830
  ===> Total WRF-GC                       3122.576
 max optd  1.9364301E+31
 max taucldi  2.1881344E-05
 max taucldw  3.2091353E-05
 Switching is not necessary as we are already
 in the right domain!
 GIGC_Chunk_Run: Running for in-PET grid #           1
 GIGC_Chunk_Run: Received new grid IM, JM, LM =          15           9
          49
 =================================================
 W R F - G C   T I M E R S
    Domain           1 (Units: s)
 =================================================
  => Coupler Component                       5.350
   -- Physics & Parameterization             1.277
   -- Diagnostics Out                        0.000
  => GEOS-Chem Column                      206.498
  ===> Total Chemistry                     211.848
  => WRF                                  2930.018
  ===> Total WRF-GC                       3141.866
 HOURLY EMISSIONS UPDATE TIME    39600.0       0.0
mediation_integrate: med_read_wrf_chem_emissions: Read emissions for time 2018-01-01_11:00:00
 max optd  1.9364301E+31
 max taucldi  2.1666789E-05
 max taucldw  3.2075055E-05
 Switching is not necessary as we are already
 in the right domain!
 GIGC_Chunk_Run: Running for in-PET grid #           1
 GIGC_Chunk_Run: Received new grid IM, JM, LM =          15           9
          49
 =================================================
 W R F - G C   T I M E R S
    Domain           1 (Units: s)
 =================================================
  => Coupler Component                       5.391
   -- Physics & Parameterization             1.287
   -- Diagnostics Out                        0.000
  => GEOS-Chem Column                      207.564
  ===> Total Chemistry                     212.955
  => WRF                                  2948.199
  ===> Total WRF-GC                       3161.154
 max optd  1.9364301E+31
 max taucldi  2.1537486E-05
 max taucldw  3.2066739E-05
 Switching is not necessary as we are already
 in the right domain!
 GIGC_Chunk_Run: Running for in-PET grid #           1
 GIGC_Chunk_Run: Received new grid IM, JM, LM =          15           9
          49
 =================================================
 W R F - G C   T I M E R S
    Domain           1 (Units: s)
 =================================================
  => Coupler Component                       5.437
   -- Physics & Parameterization             1.297
   -- Diagnostics Out                        0.000
  => GEOS-Chem Column                      208.595
  ===> Total Chemistry                     214.033
  => WRF                                  2966.310
  ===> Total WRF-GC                       3180.343
 max optd  1.9364301E+31
 max taucldi  2.1508818E-05
 max taucldw  3.2069478E-05
 Switching is not necessary as we are already
 in the right domain!
 GIGC_Chunk_Run: Running for in-PET grid #           1
 GIGC_Chunk_Run: Received new grid IM, JM, LM =          15           9
          49
 =================================================
 W R F - G C   T I M E R S
    Domain           1 (Units: s)
 =================================================
  => Coupler Component                       5.487
   -- Physics & Parameterization             1.308
   -- Diagnostics Out                        0.000
  => GEOS-Chem Column                      209.637
  ===> Total Chemistry                     215.124
  => WRF                                  2984.556
  ===> Total WRF-GC                       3199.681
 max optd  1.9364301E+31
 max taucldi  2.1582347E-05
 max taucldw  3.2077303E-05
 Switching is not necessary as we are already
 in the right domain!
 GIGC_Chunk_Run: Running for in-PET grid #           1
 GIGC_Chunk_Run: Received new grid IM, JM, LM =          15           9
          49
 =================================================
 W R F - G C   T I M E R S
    Domain           1 (Units: s)
 =================================================
  => Coupler Component                       5.528
   -- Physics & Parameterization             1.317
   -- Diagnostics Out                        0.000
  => GEOS-Chem Column                      210.691
  ===> Total Chemistry                     216.219
  => WRF                                  3002.840
  ===> Total WRF-GC                       3219.058
 max optd  1.9364301E+31
 max taucldi  2.1746770E-05
 max taucldw  3.2076947E-05
 Switching is not necessary as we are already
 in the right domain!
 GIGC_Chunk_Run: Running for in-PET grid #           1
 GIGC_Chunk_Run: Received new grid IM, JM, LM =          15           9
          49
 =================================================
 W R F - G C   T I M E R S
    Domain           1 (Units: s)
 =================================================
  => Coupler Component                       5.573
   -- Physics & Parameterization             1.328
   -- Diagnostics Out                        0.000
  => GEOS-Chem Column                      211.731
  ===> Total Chemistry                     217.304
  => WRF                                  3021.255
  ===> Total WRF-GC                       3238.559
 max optd  1.9364301E+31
 max taucldi  2.1978050E-05
 max taucldw  3.2054329E-05
 Switching is not necessary as we are already
 in the right domain!
 GIGC_Chunk_Run: Running for in-PET grid #           1
 GIGC_Chunk_Run: Received new grid IM, JM, LM =          15           9
          49
 =================================================
 W R F - G C   T I M E R S
    Domain           1 (Units: s)
 =================================================
  => Coupler Component                       5.612
   -- Physics & Parameterization             1.337
   -- Diagnostics Out                        0.000
  => GEOS-Chem Column                      212.789
  ===> Total Chemistry                     218.401
  => WRF                                  3039.658
  ===> Total WRF-GC                       3258.059
 max optd  1.9364301E+31
 max taucldi  2.2199105E-05
 max taucldw  3.1996202E-05
 Switching is not necessary as we are already
 in the right domain!
 GIGC_Chunk_Run: Running for in-PET grid #           1
 GIGC_Chunk_Run: Received new grid IM, JM, LM =          15           9
          49
 =================================================
 W R F - G C   T I M E R S
    Domain           1 (Units: s)
 =================================================
  => Coupler Component                       5.656
   -- Physics & Parameterization             1.347
   -- Diagnostics Out                        0.000
  => GEOS-Chem Column                      213.833
  ===> Total Chemistry                     219.489
  => WRF                                  3058.193
  ===> Total WRF-GC                       3277.682
 max optd  1.9364301E+31
 max taucldi  2.2374003E-05
 max taucldw  3.1898398E-05
 Switching is not necessary as we are already
 in the right domain!
 GIGC_Chunk_Run: Running for in-PET grid #           1
 GIGC_Chunk_Run: Received new grid IM, JM, LM =          15           9
          49
 =================================================
 W R F - G C   T I M E R S
    Domain           1 (Units: s)
 =================================================
  => Coupler Component                       5.699
   -- Physics & Parameterization             1.356
   -- Diagnostics Out                        0.000
  => GEOS-Chem Column                      214.885
  ===> Total Chemistry                     220.583
  => WRF                                  3076.788
  ===> Total WRF-GC                       3297.371
 max optd  1.9364301E+31
 max taucldi  2.2476410E-05
 max taucldw  3.1764404E-05
 Switching is not necessary as we are already
 in the right domain!
 GIGC_Chunk_Run: Running for in-PET grid #           1
 GIGC_Chunk_Run: Received new grid IM, JM, LM =          15           9
          49
 =================================================
 W R F - G C   T I M E R S
    Domain           1 (Units: s)
 =================================================
  => Coupler Component                       5.738
   -- Physics & Parameterization             1.366
   -- Diagnostics Out                        0.000
  => GEOS-Chem Column                      215.935
  ===> Total Chemistry                     221.673
  => WRF                                  3095.447
  ===> Total WRF-GC                       3317.120
 max optd  1.9364301E+31
 max taucldi  2.2464015E-05
 max taucldw  3.1845357E-05
 Switching is not necessary as we are already
 in the right domain!
 GIGC_Chunk_Run: Running for in-PET grid #           1
 GIGC_Chunk_Run: Received new grid IM, JM, LM =          15           9
          49
 =================================================
 W R F - G C   T I M E R S
    Domain           1 (Units: s)
 =================================================
  => Coupler Component                       5.777
   -- Physics & Parameterization             1.376
   -- Diagnostics Out                        0.000
  => GEOS-Chem Column                      216.988
  ===> Total Chemistry                     222.765
  => WRF                                  3114.367
  ===> Total WRF-GC                       3337.132
 max optd  1.9364301E+31
 max taucldi  2.2302364E-05
 max taucldw  3.1920503E-05
 Switching is not necessary as we are already
 in the right domain!
 GIGC_Chunk_Run: Running for in-PET grid #           1
 GIGC_Chunk_Run: Received new grid IM, JM, LM =          15           9
          49
 =================================================
 W R F - G C   T I M E R S
    Domain           1 (Units: s)
 =================================================
  => Coupler Component                       5.817
   -- Physics & Parameterization             1.386
   -- Diagnostics Out                        0.000
  => GEOS-Chem Column                      218.021
  ===> Total Chemistry                     223.839
  => WRF                                  3133.158
  ===> Total WRF-GC                       3356.997
 max optd  1.9364301E+31
 max taucldi  2.2082399E-05
 max taucldw  3.1964762E-05
 Switching is not necessary as we are already
 in the right domain!
 GIGC_Chunk_Run: Running for in-PET grid #           1
 GIGC_Chunk_Run: Received new grid IM, JM, LM =          15           9
          49
 =================================================
 W R F - G C   T I M E R S
    Domain           1 (Units: s)
 =================================================
  => Coupler Component                       5.860
   -- Physics & Parameterization             1.396
   -- Diagnostics Out                        0.000
  => GEOS-Chem Column                      219.050
  ===> Total Chemistry                     224.910
  => WRF                                  3151.928
  ===> Total WRF-GC                       3376.837
d01 2018-01-01_12:00:00 wrf: SUCCESS COMPLETE WRF
