taskid: 2680 hostname: ip-172-31-9-38
Quilting with   1 groups of   0 I/O tasks.
 Ntasks in X           64 , ntasks in Y           72
--- WARNING: traj_opt is zero, but num_traj is not zero; setting num_traj to zero.
--- NOTE: sst_update is 0, setting io_form_auxinput4 = 0 and auxinput4_interval = 0 for all domains
--- NOTE: grid_fdda is 0 for domain      1, setting gfdda interval and ending time to 0 for that domain.
--- NOTE: both grid_sfdda and pxlsm_soil_nudge are 0 for domain      1, setting sgfdda interval and ending time to 0 for that domain.
--- NOTE: obs_nudge_opt is 0 for domain      1, setting obs nudging interval and ending time to 0 for that domain.
--- NOTE: bl_pbl_physics /= 4, implies mfshconv must be 0, resetting
Need MYNN PBL for icloud_bl = 1, resetting to 0
*************************************
No physics suite selected.
Physics options will be used directly from the namelist.
*************************************
--- NOTE: RRTMG radiation is in use, setting:  levsiz=59, alevsiz=12, no_src_types=6
--- NOTE: num_soil_layers has been set to      4
WRF V3.9.1.1 MODEL
 *************************************
 Parent domain
 ids,ide,jds,jde            1         950           1         650
 ims,ime,jms,jme          824         852         364         386
 ips,ipe,jps,jpe          831         845         371         379
 *************************************
DYNAMICS OPTION: Eulerian Mass Coordinate
   alloc_space_field: domain            1 ,              203623800  bytes allocated
  med_initialdata_input: calling input_input
Max map factor in domain 1 =  1.40. Scale the dt in the model accordingly.
INPUT LandUse = "USGS"
 LANDUSE TYPE = "USGS" FOUND          33  CATEGORIES           2  SEASONS WATER CATEGORY =           16  SNOW CATEGORY =           24
INITIALIZE THREE Noah LSM RELATED TABLES
*****************************************************************
  __          _______  ______       _____  _____ _    _ _____
  \ \        / /  __ \|  ____|     / ____|/ ____| |  | |  __ \
   \ \  /\  / /| |__) | |__ ______| |  __| |    | |__| | |__) |
    \ \/  \/ / |  _  /|  __|______| | |_ | |    |  __  |  ___/
     \  /\  /  | | \ \| |         | |__| | |____| |  | | |
      \/  \/   |_|  \_\_|          \_____|\_____|_|  |_|_|
*****************************************************************
         WRF-GC MODEL, VERSION 1811.11 - WRF BINDINGS
 For errors, suggestions & feedback email linhaipeng@pku.edu.cn
*****************************************************************
    This is domain            1
 ### GIGC_Stateful_Mod: Root CPU, after READ_INPUT_FILE
  Linoz Data:  O3 climatology :                  z*=10, 12, ..., 58                             2.700E-08 1.083E-05
  Linoz Data:  Temperature climatology :         z*=10, 12, ..., 58                             1.859E+02 2.904E+02
  Linoz Data:  Column O3 above box climalology : z*=10, 12, ..., 58                             7.538E-02 3.770E+02
  Linoz Data:  P-L O3 climatology (mr/s):        z*=10, 12, ..., 58                            -1.590E-10 2.835E-11
  Linoz Data:  d(P-L)/dO3 (1/s) :                z*=10, 12, ..., 58                            -8.386E-04 7.556E-09
  Linoz Data:  d(P-L)/dT (mr/K) :                z*=10, 12, ..., 58                            -5.742E-12 4.615E-14
  Linoz Data:  d(P-L)/d(column O3) (mr/DU) :     z*=10, 12, ..., 58                            -1.921E-12 5.038E-10
 ### GIGC_Stateful_Mod: Root CPU, after LINOZ_READ
 %%%%%%%%% GIGC IN-PET GRID SWITCHING HACKS %%%%%%%%%
     (Not very) Proudly brought to you by hplin      
 Some debug information:
 ID:           1
 IM, JM, LM:          15           9          49  will be set as PAR
 Allocs: CMN T GC F
 RC at entry-point:           0
 %%%%%%%%%%%%%%%%%%%%%%%%%%%%%%%%%%%%%%%%%%%%%%%%%%%%
 No need to switch HcoState for ID           1
 Exit RC:            0
 %%%%%%%%%    FINISHED GIGC_Switch_Dims    %%%%%%%%%
 GIGC_Chunk_Init: Received new grid IM, JM, LM =          15           9
          49
     ### GIGC_INIT_SIMULATION: after Input_Opt% setups
     ### GIGC_INIT_SIMULATION: after GC_Init_All
     ### GIGC_INIT_SIMULATION: after GC_Init_Extra
     ### GIGC_INIT_SIMULATION: after INIT_FJX
 # GIGC_CHUNK_MOD: after SV save, ID =           1
 WRFGC chemics_init: Following information regarding Input_Opt% (for all doms)
 After domain           1
 HPC:  T
 LPRT:  F
 DoConv:  T
 DoDryDep:  T
 DoEmis:  T
 DoChem:  T
 DoTurb:  T
 DoWetDep:  T

 tropopause_init: DONE intialized domain            1

 mediation_integrate: med_read_wrf_chem_emissions: Open file wrfchemi_00z_d01
 HOURLY EMISSIONS UPDATE TIME        0.0       0.0
mediation_integrate: med_read_wrf_chem_emissions: Read emissions for time 2018-01-01_00:00:00
open_aux_u : error opening wrffirechemi_d01_2018-01-01_00:00:00 for reading. 100
open_aux_u : error opening wrfchemi_gocart_bg_d01 for reading. 100
d01 2018-01-01_00:00:00 Input data processed for aux input   8 for domain   1
open_aux_u : error opening wrfchemv_d01 for reading. 100
 Tile Strategy is not specified. Assuming 1D-Y
WRF TILE   1 IS    831 IE    845 JS    371 JE    379
WRF NUMBER OF TILES =   1
 max optd  2.3883349E+20
 max taucldi  0.0000000E+00
 max taucldw  0.0000000E+00
 =================================================
 W R F - G C   T I M E R S
    Domain           1 (Units: s)
 =================================================
  => Coupler Component                       0.028
   -- Physics & Parameterization             0.001
   -- Diagnostics Out                        0.000
  => GEOS-Chem Column                        0.000
  ===> Total Chemistry                       0.028
  => WRF                                     0.000
  ===> Total WRF-GC                          0.028
 max optd  2.3883349E+20
 max taucldi  1.0000007E-14
 max taucldw  1.0000007E-14
 %%%%%%%%% GIGC IN-PET GRID SWITCHING HACKS %%%%%%%%%
     (Not very) Proudly brought to you by hplin      
 Some debug information:
 ID:           1
 IM, JM, LM:          15           9          49  will be set as PAR
 Allocs: CMN T GC T
 RC at entry-point:           0
 %%%%%%%%%%%%%%%%%%%%%%%%%%%%%%%%%%%%%%%%%%%%%%%%%%%%
 No need to switch HcoState for ID           1
 Debug HcoState nSpc, NX, NY, NZ         163          15           9          49
 Exit RC:            0
 %%%%%%%%%    FINISHED GIGC_Switch_Dims    %%%%%%%%%
 GIGC_Chunk_Run: Running for in-PET grid #           1
 GIGC_Chunk_Run: Received new grid IM, JM, LM =          15           9
          49
HEMCO: Opening /fsx/HEMCO/BIOFUEL/v2014-07/biofuel.geos.4x5.nc
HEMCO: Opening /fsx/HEMCO/BROMINE/v2015-02/Bromocarb_Liang2010.nc
HEMCO: Opening /fsx/HEMCO/ACET/v2014-07/ACET_seawater.generic.1x1.nc
HEMCO: Opening /fsx/HEMCO/SOILNOX/v2014-07/DepReservoirDefault.nc
HEMCO: Opening /fsx/HEMCO/SOILNOX/v2014-07/soilNOx.landtype.generic.025x025.1L.nc
HEMCO: Opening /fsx/HEMCO/SOILNOX/v2014-07/soilNOx.climate.generic.05x05.nc
HEMCO: Opening /fsx/HEMCO/DUST_DEAD/v2014-07/dst_tibds.geos.4x5.nc
HEMCO: Opening /fsx/HEMCO/DUST_DEAD/v2014-07/GOCART_src_fn.geos.4x5.nc
HEMCO: Opening /fsx/HEMCO/MEGAN/v2018-05/MEGAN2.1_EF.geos.025x03125.nc
HEMCO: Opening /fsx/HEMCO/MEGAN/v2017-07/CLM4_PFT.geos.025x03125.nc
HEMCO: Opening /fsx/HEMCO/TIMEZONES/v2015-02/timezones_voronoi_1x1.nc
HEMCO: Opening /fsx/HEMCO/STRAT/v2015-01/Bry/GEOSCCM_Bry.200701.day.nc
HEMCO: Opening /fsx/HEMCO/STRAT/v2015-01/Bry/GEOSCCM_Bry.200701.night.nc
HEMCO: Opening /fsx/HEMCO/OMOC/v2018-01/OMOC.DJF.01x01.nc
HEMCO: Opening /fsx/HEMCO/OMOC/v2018-01/OMOC.MAM.01x01.nc
HEMCO: Opening /fsx/HEMCO/OMOC/v2018-01/OMOC.JJA.01x01.nc
HEMCO: Opening /fsx/HEMCO/OMOC/v2018-01/OMOC.SON.01x01.nc
HEMCO: Opening /fsx/HEMCO/AnnualScalar/v2014-07/AnnualScalar.geos.1x1.nc
HEMCO: Opening /fsx/HEMCO/EDGARv42/v2015-02/NO/EDGAR_hourly_NOxScal.nc
HEMCO: Opening /fsx/HEMCO/MASKS/v2018-09/EMEP_mask.geos.1x1.20151222.nc
HEMCO: Opening /fsx/HEMCO/MASKS/v2018-09/Canada_mask.geos.1x1.nc
HEMCO: Opening /fsx/HEMCO/MASKS/v2018-09/SE_Asia_mask.generic.1x1.nc
HEMCO: Opening /fsx/HEMCO/MASKS/v2018-09/MIX_Asia_mask.generic.025x025.nc
HEMCO: Opening /fsx/HEMCO/MASKS/v2018-09/CONUS_Mask.01x01.nc
HEMCO: Opening /fsx/HEMCO/MASKS/v2018-09/AF_LANDMASK.geos.05x0666.global.nc
HEMCO: Opening /fsx/HEMCO/MASKS/v2018-09/China_mask.generic.1x1.nc
HEMCO: Opening /fsx/HEMCO/MASKS/v2018-09/India_mask.generic.1x1.nc
HEMCO: Opening /fsx/HEMCO/AnnualScalar/v2014-07/AnnualScalar.geos.1x1.nc
HEMCO: Opening /fsx/HEMCO/NH3/v2014-07/NH3_geos.4x5.nc
HEMCO: Opening /fsx/HEMCO/NH3/v2018-04/NH3_Arctic_seabirds.nc
HEMCO: Opening /fsx/HEMCO/CEDS/v2018-08/2014/NO-em-anthro_CMIP_CEDS_2014.nc
HEMCO: Opening /fsx/HEMCO/CEDS/v2018-08/2014/CO-em-anthro_CMIP_CEDS_2014.nc
HEMCO: Opening /fsx/HEMCO/CEDS/v2018-08/2014/SO2-em-anthro_CMIP_CEDS_2014.nc
HEMCO: Opening /fsx/HEMCO/CEDS/v2018-08/2014/NH3-em-anthro_CMIP_CEDS_2014.nc
HEMCO: Opening /fsx/HEMCO/CEDS/v2018-08/2014/BC-em-anthro_CMIP_CEDS_2014.nc
HEMCO: Opening /fsx/HEMCO/CEDS/v2018-08/2014/OC-em-anthro_CMIP_CEDS_2014.nc
HEMCO: Opening /fsx/HEMCO/CEDS/v2018-08/2014/EOH-em-anthro_CMIP_CEDS_2014.nc
HEMCO: Opening /fsx/HEMCO/CEDS/v2018-08/2014/C2H6-em-anthro_CMIP_CEDS_2014.nc
HEMCO: Opening /fsx/HEMCO/CEDS/v2018-08/2014/C3H8-em-anthro_CMIP_CEDS_2014.nc
HEMCO: Opening /fsx/HEMCO/CEDS/v2018-08/2014/ALK4_butanes-em-anthro_CMIP_CEDS_2014.nc
HEMCO: Opening /fsx/HEMCO/CEDS/v2018-08/2014/ALK4_pentanes-em-anthro_CMIP_CEDS_2014.nc
HEMCO: Opening /fsx/HEMCO/CEDS/v2018-08/2014/ALK4_hexanes-em-anthro_CMIP_CEDS_2014.nc
HEMCO: Opening /fsx/HEMCO/CEDS/v2018-08/2014/PRPE-em-anthro_CMIP_CEDS_2014.nc
HEMCO: Opening /fsx/HEMCO/CEDS/v2018-08/2014/BENZ-em-anthro_CMIP_CEDS_2014.nc
HEMCO: Opening /fsx/HEMCO/CEDS/v2018-08/2014/TOLU-em-anthro_CMIP_CEDS_2014.nc
HEMCO: Opening /fsx/HEMCO/CEDS/v2018-08/2014/XYLE-em-anthro_CMIP_CEDS_2014.nc
HEMCO: Opening /fsx/HEMCO/CEDS/v2018-08/2014/CH2O-em-anthro_CMIP_CEDS_2014.nc
HEMCO: Opening /fsx/HEMCO/CEDS/v2018-08/2014/ALD2-em-anthro_CMIP_CEDS_2014.nc
HEMCO: Opening /fsx/HEMCO/CEDS/v2018-08/2014/MEK-em-anthro_CMIP_CEDS_2014.nc
HEMCO: Opening /fsx/HEMCO/CEDS/v2018-08/2014/HCOOH-em-anthro_CMIP_CEDS_2014.nc
HEMCO: Opening /fsx/HEMCO/C2H6_2010/v2017-05/C2H6_global_anth_biof.201001.nc
HEMCO: Opening /fsx/HEMCO/NEI2011/v2017-02-MM/01/NEI11_0.1x0.1_201101_monmean.nc
HEMCO: Opening /fsx/HEMCO/NEI2011/v2017-02-MM/01/NEI11_0.1x0.1_201101_monmean_egu.nc
HEMCO: Opening /fsx/HEMCO/NEI2011/v2017-02-MM/01/NEI11_0.1x0.1_201101_monmean_egupk.nc
HEMCO: Opening /fsx/HEMCO/NEI2011/v2017-02-MM/01/NEI11_0.1x0.1_201101_monmean_oilgas.nc
HEMCO: Opening /fsx/HEMCO/NEI2011/v2017-02-MM/01/NEI11_0.1x0.1_201101_monmean_othpt.nc
HEMCO: Opening /fsx/HEMCO/NEI2011/v2017-02-MM/01/NEI11_0.1x0.1_201101_monmean_ptnonipm.nc
HEMCO: Opening /fsx/HEMCO/IODINE/v2017-09/CH3I_monthly_emissions_Ordonez_2012_COARDS.nc
HEMCO: Opening /fsx/HEMCO/IODINE/v2017-09/CH2I2_monthly_emissions_Ordonez_2012_COARDS.nc
HEMCO: Opening /fsx/HEMCO/IODINE/v2017-09/CH2ICl_monthly_emissions_Ordonez_2012_COARDS.nc
HEMCO: Opening /fsx/HEMCO/IODINE/v2017-09/CH2IBr_monthly_emissions_Ordonez_2012_COARDS.nc
HEMCO: Opening /fsx/HEMCO/CEDS/v2018-08/2014/CO-em-anthro_CMIP_CEDS_2014.nc
HEMCO: Opening /fsx/HEMCO/CEDS/v2018-08/2014/SO2-em-anthro_CMIP_CEDS_2014.nc
HEMCO: Opening /fsx/HEMCO/CEDS/v2018-08/2014/NH3-em-anthro_CMIP_CEDS_2014.nc
HEMCO: Opening /fsx/HEMCO/CEDS/v2018-08/2014/BC-em-anthro_CMIP_CEDS_2014.nc
HEMCO: Opening /fsx/HEMCO/CEDS/v2018-08/2014/OC-em-anthro_CMIP_CEDS_2014.nc
HEMCO: Opening /fsx/HEMCO/CEDS/v2018-08/2014/EOH-em-anthro_CMIP_CEDS_2014.nc
HEMCO: Opening /fsx/HEMCO/CEDS/v2018-08/2014/C2H6-em-anthro_CMIP_CEDS_2014.nc
HEMCO: Opening /fsx/HEMCO/CEDS/v2018-08/2014/C3H8-em-anthro_CMIP_CEDS_2014.nc
HEMCO: Opening /fsx/HEMCO/CEDS/v2018-08/2014/ALK4_butanes-em-anthro_CMIP_CEDS_2014.nc
HEMCO: Opening /fsx/HEMCO/CEDS/v2018-08/2014/ALK4_pentanes-em-anthro_CMIP_CEDS_2014.nc
HEMCO: Opening /fsx/HEMCO/CEDS/v2018-08/2014/ALK4_hexanes-em-anthro_CMIP_CEDS_2014.nc
HEMCO: Opening /fsx/HEMCO/CEDS/v2018-08/2014/PRPE-em-anthro_CMIP_CEDS_2014.nc
HEMCO: Opening /fsx/HEMCO/CEDS/v2018-08/2014/BENZ-em-anthro_CMIP_CEDS_2014.nc
HEMCO: Opening /fsx/HEMCO/CEDS/v2018-08/2014/TOLU-em-anthro_CMIP_CEDS_2014.nc
HEMCO: Opening /fsx/HEMCO/CEDS/v2018-08/2014/XYLE-em-anthro_CMIP_CEDS_2014.nc
HEMCO: Opening /fsx/HEMCO/CEDS/v2018-08/2014/CH2O-em-anthro_CMIP_CEDS_2014.nc
HEMCO: Opening /fsx/HEMCO/CEDS/v2018-08/2014/ALD2-em-anthro_CMIP_CEDS_2014.nc
HEMCO: Opening /fsx/HEMCO/CEDS/v2018-08/2014/MEK-em-anthro_CMIP_CEDS_2014.nc
HEMCO: Opening /fsx/HEMCO/CEDS/v2018-08/2014/HCOOH-em-anthro_CMIP_CEDS_2014.nc
HEMCO: Opening /fsx/HEMCO/CEDS/v2018-08/2014/NO-em-anthro_CMIP_CEDS_2014.nc
HEMCO: Opening /fsx/HEMCO/AEIC/v2015-01/AEIC.47L.gen.1x1.nc
HEMCO: Opening /fsx/HEMCO/ALD2/v2017-03/resp.geos.2x25.nc
HEMCO: Opening /fsx/HEMCO/DMS/v2015-07/DMS_lana.geos.1x1.nc
HEMCO: Opening /fsx/HEMCO/ALD2/v2017-03/ALD2_seawater.geos.2x25.nc
HEMCO: Opening /fsx/HEMCO/DUST_DEAD/v2014-07/dst_tvbds.geos.4x5.nc
HEMCO: Opening /fsx/HEMCO/DUST_DEAD/v2018-04/PM25FINE_ECLIPSE_2015.geos.2x25.nc
HEMCO: Opening /fsx/HEMCO/SOA/v2014-07/NVOC.geos.1x1.nc
HEMCO: Opening /fsx/HEMCO/GFED4/v2015-10/2016/GFED4_gen.025x025.201601.nc
HEMCO: Opening /fsx/HEMCO/UVALBEDO/v2015-03/uvalbedo.geos.2x25.nc
HEMCO: Opening /fsx/HEMCO/GMI/v2015-02/gmi.clim.ACET.geos5.2x25.nc
HEMCO: Opening /fsx/HEMCO/GMI/v2015-02/gmi.clim.ACTA.geos5.2x25.nc
HEMCO: Opening /fsx/HEMCO/GMI/v2015-02/gmi.clim.ALD2.geos5.2x25.nc
HEMCO: Opening /fsx/HEMCO/GMI/v2015-02/gmi.clim.ALK4.geos5.2x25.nc
HEMCO: Opening /fsx/HEMCO/GMI/v2015-02/gmi.clim.C2H6.geos5.2x25.nc
HEMCO: Opening /fsx/HEMCO/GMI/v2015-02/gmi.clim.C3H8.geos5.2x25.nc
HEMCO: Opening /fsx/HEMCO/GMI/v2015-02/gmi.clim.CCl4.geos5.2x25.nc
HEMCO: Opening /fsx/HEMCO/GMI/v2015-02/gmi.clim.CF2Cl2.geos5.2x25.nc
HEMCO: Opening /fsx/HEMCO/GMI/v2015-02/gmi.clim.CF2ClBr.geos5.2x25.nc
HEMCO: Opening /fsx/HEMCO/GMI/v2015-02/gmi.clim.CFC113.geos5.2x25.nc
HEMCO: Opening /fsx/HEMCO/GMI/v2015-02/gmi.clim.CFC114.geos5.2x25.nc
HEMCO: Opening /fsx/HEMCO/GMI/v2015-02/gmi.clim.CFC115.geos5.2x25.nc
HEMCO: Opening /fsx/HEMCO/GMI/v2015-02/gmi.clim.CFCl3.geos5.2x25.nc
HEMCO: Opening /fsx/HEMCO/GMI/v2015-02/gmi.clim.CH2O.geos5.2x25.nc
HEMCO: Opening /fsx/HEMCO/GMI/v2015-02/gmi.clim.CH3CCl3.geos5.2x25.nc
HEMCO: Opening /fsx/HEMCO/GMI/v2015-02/gmi.clim.CH3Cl.geos5.2x25.nc
HEMCO: Opening /fsx/HEMCO/GMI/v2015-02/gmi.clim.CH4.geos5.2x25.nc
HEMCO: Opening /fsx/HEMCO/GMI/v2015-02/gmi.clim.CO.geos5.2x25.nc
HEMCO: Opening /fsx/HEMCO/GMI/v2015-02/gmi.clim.Cl.geos5.2x25.nc
HEMCO: Opening /fsx/HEMCO/GMI/v2015-02/gmi.clim.Cl2.geos5.2x25.nc
HEMCO: Opening /fsx/HEMCO/GMI/v2015-02/gmi.clim.Cl2O2.geos5.2x25.nc
HEMCO: Opening /fsx/HEMCO/GMI/v2015-02/gmi.clim.ClO.geos5.2x25.nc
HEMCO: Opening /fsx/HEMCO/GMI/v2015-02/gmi.clim.EOH.geos5.2x25.nc
HEMCO: Opening /fsx/HEMCO/GMI/v2015-02/gmi.clim.GLYC.geos5.2x25.nc
HEMCO: Opening /fsx/HEMCO/GMI/v2015-02/gmi.clim.GLYX.geos5.2x25.nc
HEMCO: Opening /fsx/HEMCO/GMI/v2015-02/gmi.clim.H2402.geos5.2x25.nc
HEMCO: Opening /fsx/HEMCO/GMI/v2015-02/gmi.clim.H2O.geos5.2x25.nc
HEMCO: Opening /fsx/HEMCO/GMI/v2015-02/gmi.clim.H2O2.geos5.2x25.nc
HEMCO: Opening /fsx/HEMCO/GMI/v2015-02/gmi.clim.HAC.geos5.2x25.nc
HEMCO: Opening /fsx/HEMCO/GMI/v2015-02/gmi.clim.HCFC141b.geos5.2x25.nc
HEMCO: Opening /fsx/HEMCO/GMI/v2015-02/gmi.clim.HCFC142b.geos5.2x25.nc
HEMCO: Opening /fsx/HEMCO/GMI/v2015-02/gmi.clim.HCFC22.geos5.2x25.nc
HEMCO: Opening /fsx/HEMCO/GMI/v2015-02/gmi.clim.HCOOH.geos5.2x25.20170108.nc
HEMCO: Opening /fsx/HEMCO/GMI/v2015-02/gmi.clim.HCl.geos5.2x25.nc
HEMCO: Opening /fsx/HEMCO/GMI/v2015-02/gmi.clim.HNO2.geos5.2x25.nc
HEMCO: Opening /fsx/HEMCO/GMI/v2015-02/gmi.clim.HNO3.geos5.2x25.nc
HEMCO: Opening /fsx/HEMCO/GMI/v2015-02/gmi.clim.HNO4.geos5.2x25.nc
HEMCO: Opening /fsx/HEMCO/GMI/v2015-02/gmi.clim.HOCl.geos5.2x25.nc
HEMCO: Opening /fsx/HEMCO/GMI/v2015-02/gmi.clim.ISN1.geos5.2x25.nc
HEMCO: Opening /fsx/HEMCO/GMI/v2015-02/gmi.clim.ISOP.geos5.2x25.nc
HEMCO: Opening /fsx/HEMCO/GMI/v2015-02/gmi.clim.MACR.geos5.2x25.nc
HEMCO: Opening /fsx/HEMCO/GMI/v2015-02/gmi.clim.MAP.geos5.2x25.nc
HEMCO: Opening /fsx/HEMCO/GMI/v2015-02/gmi.clim.MEK.geos5.2x25.nc
HEMCO: Opening /fsx/HEMCO/GMI/v2015-02/gmi.clim.MGLY.geos5.2x25.nc
HEMCO: Opening /fsx/HEMCO/GMI/v2015-02/gmi.clim.MP.geos5.2x25.nc
HEMCO: Opening /fsx/HEMCO/GMI/v2015-02/gmi.clim.MVK.geos5.2x25.nc
HEMCO: Opening /fsx/HEMCO/GMI/v2015-02/gmi.clim.N2O.geos5.2x25.nc
HEMCO: Opening /fsx/HEMCO/GMI/v2015-02/gmi.clim.N2O5.geos5.2x25.nc
HEMCO: Opening /fsx/HEMCO/GMI/v2015-02/gmi.clim.NO.geos5.2x25.nc
HEMCO: Opening /fsx/HEMCO/GMI/v2015-02/gmi.clim.NO2.geos5.2x25.nc
HEMCO: Opening /fsx/HEMCO/GMI/v2015-02/gmi.clim.NO3.geos5.2x25.nc
HEMCO: Opening /fsx/HEMCO/GMI/v2015-02/gmi.clim.O3.geos5.2x25.nc
HEMCO: Opening /fsx/HEMCO/GMI/v2015-02/gmi.clim.OClO.geos5.2x25.nc
HEMCO: Opening /fsx/HEMCO/GMI/v2015-02/gmi.clim.PAN.geos5.2x25.nc
HEMCO: Opening /fsx/HEMCO/GMI/v2015-02/gmi.clim.NPMN.geos5.2x25.nc
HEMCO: Opening /fsx/HEMCO/GMI/v2015-02/gmi.clim.IPMN.geos5.2x25.nc
HEMCO: Opening /fsx/HEMCO/GMI/v2015-02/gmi.clim.PPN.geos5.2x25.nc
HEMCO: Opening /fsx/HEMCO/GMI/v2015-02/gmi.clim.PRPE.geos5.2x25.nc
HEMCO: Opening /fsx/HEMCO/GMI/v2015-02/gmi.clim.R4N2.geos5.2x25.nc
HEMCO: Opening /fsx/HEMCO/GMI/v2015-02/gmi.clim.RCHO.geos5.2x25.nc
HEMCO: Opening /fsx/HEMCO/GMI/v2015-02/gmi.clim.RIPA.geos5.2x25.nc
HEMCO: Opening /fsx/HEMCO/GMI/v2015-02/gmi.clim.RIPB.geos5.2x25.nc
HEMCO: Opening /fsx/HEMCO/GMI/v2015-02/gmi.clim.RIPD.geos5.2x25.nc
HEMCO: Opening /fsx/HEMCO/GMI/v2015-02/gmi.clim.OH.geos5.2x25.nc
HEMCO: Opening /fsx/HEMCO/NOAA_GMD/v2018-01/monthly.gridded.surface.methane.1979-2020.1x1.nc
HEMCO: Opening /fsx/HEMCO/GEIA/v2014-07/GEIA_monthscal.generic.1x1.nc
HEMCO: Opening /fsx/HEMCO/EMEP/v2015-03/EMEP.Seasonal.geos.1x1.nc
HEMCO: Opening /fsx/HEMCO/BROMINE/v2015-02/BromoCarb_Season.nc
HEMCO: Opening /fsx/HEMCO/EDGARv43/v2016-11/EDGAR_v43.Seasonal.1x1.nc
HEMCO: Opening /fsx/HEMCO/NEI2005/v2014-09/scaling/NEI99.dow.geos.1x1.nc
HEMCO: Opening /fsx/HEMCO/VOLCANO/v2015-02/2009/volc_so2_gen.1x1.47L.200901.nc
HEMCO: Opening /fsx/HEMCO/SOILNOX/v2014-07/soilNOx.fert_res.generic.05x05.nc
 vdinti: pbl height will be limited to bottom           25  model levels. top is
     431.250100000000       hpa
 =================================================
 W R F - G C   T I M E R S
    Domain           1 (Units: s)
 =================================================
  => Coupler Component                       0.052
   -- Physics & Parameterization             0.010
   -- Diagnostics Out                        0.000
  => GEOS-Chem Column                      153.519
  ===> Total Chemistry                     153.571
  => WRF                                    17.441
  ===> Total WRF-GC                        171.012
 max optd  1.9364301E+31
 max taucldi  1.9139756E-05
 max taucldw  1.2413736E-05
 Switching is not necessary as we are already
 in the right domain!
 GIGC_Chunk_Run: Running for in-PET grid #           1
 GIGC_Chunk_Run: Received new grid IM, JM, LM =          15           9
          49
 =================================================
 W R F - G C   T I M E R S
    Domain           1 (Units: s)
 =================================================
  => Coupler Component                       0.088
   -- Physics & Parameterization             0.019
   -- Diagnostics Out                        0.000
  => GEOS-Chem Column                      154.646
  ===> Total Chemistry                     154.735
  => WRF                                    37.524
  ===> Total WRF-GC                        192.259
 max optd  1.9364301E+31
 max taucldi  3.3102231E-05
 max taucldw  2.4827210E-05
 Switching is not necessary as we are already
 in the right domain!
 GIGC_Chunk_Run: Running for in-PET grid #           1
 GIGC_Chunk_Run: Received new grid IM, JM, LM =          15           9
          49
 =================================================
 W R F - G C   T I M E R S
    Domain           1 (Units: s)
 =================================================
  => Coupler Component                       0.123
   -- Physics & Parameterization             0.029
   -- Diagnostics Out                        0.000
  => GEOS-Chem Column                      155.709
  ===> Total Chemistry                     155.832
  => WRF                                    58.246
  ===> Total WRF-GC                        214.077
 max optd  1.9364301E+31
 max taucldi  3.2748318E-05
 max taucldw  3.7256861E-05
 Switching is not necessary as we are already
 in the right domain!
 GIGC_Chunk_Run: Running for in-PET grid #           1
 GIGC_Chunk_Run: Received new grid IM, JM, LM =          15           9
          49
 =================================================
 W R F - G C   T I M E R S
    Domain           1 (Units: s)
 =================================================
  => Coupler Component                       0.161
   -- Physics & Parameterization             0.038
   -- Diagnostics Out                        0.000
  => GEOS-Chem Column                      156.762
  ===> Total Chemistry                     156.923
  => WRF                                    77.276
  ===> Total WRF-GC                        234.198
 max optd  1.9364301E+31
 max taucldi  2.5370582E-05
 max taucldw  4.9583610E-05
 Switching is not necessary as we are already
 in the right domain!
 GIGC_Chunk_Run: Running for in-PET grid #           1
 GIGC_Chunk_Run: Received new grid IM, JM, LM =          15           9
          49
 =================================================
 W R F - G C   T I M E R S
    Domain           1 (Units: s)
 =================================================
  => Coupler Component                       0.197
   -- Physics & Parameterization             0.048
   -- Diagnostics Out                        0.000
  => GEOS-Chem Column                      157.816
  ===> Total Chemistry                     158.013
  => WRF                                    95.849
  ===> Total WRF-GC                        253.862
 max optd  1.9364301E+31
 max taucldi  1.7699911E-05
 max taucldw  6.1772800E-05
 Switching is not necessary as we are already
 in the right domain!
 GIGC_Chunk_Run: Running for in-PET grid #           1
 GIGC_Chunk_Run: Received new grid IM, JM, LM =          15           9
          49
 =================================================
 W R F - G C   T I M E R S
    Domain           1 (Units: s)
 =================================================
  => Coupler Component                       0.235
   -- Physics & Parameterization             0.057
   -- Diagnostics Out                        0.000
  => GEOS-Chem Column                      158.876
  ===> Total Chemistry                     159.110
  => WRF                                   114.297
  ===> Total WRF-GC                        273.407
 max optd  1.9364301E+31
 max taucldi  5.2895452E-05
 max taucldw  7.3734933E-05
 Switching is not necessary as we are already
 in the right domain!
 GIGC_Chunk_Run: Running for in-PET grid #           1
 GIGC_Chunk_Run: Received new grid IM, JM, LM =          15           9
          49
 =================================================
 W R F - G C   T I M E R S
    Domain           1 (Units: s)
 =================================================
  => Coupler Component                       0.270
   -- Physics & Parameterization             0.066
   -- Diagnostics Out                        0.000
  => GEOS-Chem Column                      159.931
  ===> Total Chemistry                     160.201
  => WRF                                   132.737
  ===> Total WRF-GC                        292.938
 max optd  1.9364301E+31
 max taucldi  9.1477792E-05
 max taucldw  8.5234307E-05
 Switching is not necessary as we are already
 in the right domain!
 GIGC_Chunk_Run: Running for in-PET grid #           1
 GIGC_Chunk_Run: Received new grid IM, JM, LM =          15           9
          49
 =================================================
 W R F - G C   T I M E R S
    Domain           1 (Units: s)
 =================================================
  => Coupler Component                       0.309
   -- Physics & Parameterization             0.075
   -- Diagnostics Out                        0.000
  => GEOS-Chem Column                      160.995
  ===> Total Chemistry                     161.304
  => WRF                                   151.109
  ===> Total WRF-GC                        312.413
 max optd  1.9364301E+31
 max taucldi  1.1050270E-04
 max taucldw  9.5995754E-05
 Switching is not necessary as we are already
 in the right domain!
 GIGC_Chunk_Run: Running for in-PET grid #           1
 GIGC_Chunk_Run: Received new grid IM, JM, LM =          15           9
          49
 =================================================
 W R F - G C   T I M E R S
    Domain           1 (Units: s)
 =================================================
  => Coupler Component                       0.345
   -- Physics & Parameterization             0.084
   -- Diagnostics Out                        0.000
  => GEOS-Chem Column                      162.056
  ===> Total Chemistry                     162.401
  => WRF                                   169.473
  ===> Total WRF-GC                        331.874
 max optd  1.9364301E+31
 max taucldi  4.7563436E-04
 max taucldw  1.0517837E-04
 Switching is not necessary as we are already
 in the right domain!
 GIGC_Chunk_Run: Running for in-PET grid #           1
 GIGC_Chunk_Run: Received new grid IM, JM, LM =          15           9
          49
 =================================================
 W R F - G C   T I M E R S
    Domain           1 (Units: s)
 =================================================
  => Coupler Component                       0.382
   -- Physics & Parameterization             0.093
   -- Diagnostics Out                        0.000
  => GEOS-Chem Column                      163.128
  ===> Total Chemistry                     163.509
  => WRF                                   187.899
  ===> Total WRF-GC                        351.408
 max optd  1.9364301E+31
 max taucldi  3.8449762E-03
 max taucldw  1.1178866E-04
 Switching is not necessary as we are already
 in the right domain!
 GIGC_Chunk_Run: Running for in-PET grid #           1
 GIGC_Chunk_Run: Received new grid IM, JM, LM =          15           9
          49
 =================================================
 W R F - G C   T I M E R S
    Domain           1 (Units: s)
 =================================================
  => Coupler Component                       0.417
   -- Physics & Parameterization             0.103
   -- Diagnostics Out                        0.000
  => GEOS-Chem Column                      164.191
  ===> Total Chemistry                     164.607
  => WRF                                   206.242
  ===> Total WRF-GC                        370.850
 max optd  1.9364301E+31
 max taucldi  8.4008062E-03
 max taucldw  1.1523741E-04
 Switching is not necessary as we are already
 in the right domain!
 GIGC_Chunk_Run: Running for in-PET grid #           1
 GIGC_Chunk_Run: Received new grid IM, JM, LM =          15           9
          49
 =================================================
 W R F - G C   T I M E R S
    Domain           1 (Units: s)
 =================================================
  => Coupler Component                       0.457
   -- Physics & Parameterization             0.112
   -- Diagnostics Out                        0.000
  => GEOS-Chem Column                      165.254
  ===> Total Chemistry                     165.712
  => WRF                                   224.473
  ===> Total WRF-GC                        390.185
 HOURLY EMISSIONS UPDATE TIME     3600.0       0.0
mediation_integrate: med_read_wrf_chem_emissions: Read emissions for time 2018-01-01_01:00:00
 max optd  1.9364301E+31
 max taucldi  1.1097851E-02
 max taucldw  1.1953760E-04
 Switching is not necessary as we are already
 in the right domain!
 GIGC_Chunk_Run: Running for in-PET grid #           1
 GIGC_Chunk_Run: Received new grid IM, JM, LM =          15           9
          49
 =================================================
 W R F - G C   T I M E R S
    Domain           1 (Units: s)
 =================================================
  => Coupler Component                       0.497
   -- Physics & Parameterization             0.121
   -- Diagnostics Out                        0.000
  => GEOS-Chem Column                      166.331
  ===> Total Chemistry                     166.828
  => WRF                                   242.775
  ===> Total WRF-GC                        409.603
 max optd  1.9364301E+31
 max taucldi  1.2958700E-02
 max taucldw  1.2827478E-04
 Switching is not necessary as we are already
 in the right domain!
 GIGC_Chunk_Run: Running for in-PET grid #           1
 GIGC_Chunk_Run: Received new grid IM, JM, LM =          15           9
          49
 =================================================
 W R F - G C   T I M E R S
    Domain           1 (Units: s)
 =================================================
  => Coupler Component                       0.536
   -- Physics & Parameterization             0.130
   -- Diagnostics Out                        0.000
  => GEOS-Chem Column                      167.409
  ===> Total Chemistry                     167.945
  => WRF                                   261.059
  ===> Total WRF-GC                        429.004
 max optd  1.9364301E+31
 max taucldi  1.4425430E-02
 max taucldw  1.3966137E-04
 Switching is not necessary as we are already
 in the right domain!
 GIGC_Chunk_Run: Running for in-PET grid #           1
 GIGC_Chunk_Run: Received new grid IM, JM, LM =          15           9
          49
 =================================================
 W R F - G C   T I M E R S
    Domain           1 (Units: s)
 =================================================
  => Coupler Component                       0.572
   -- Physics & Parameterization             0.140
   -- Diagnostics Out                        0.000
  => GEOS-Chem Column                      168.487
  ===> Total Chemistry                     169.059
  => WRF                                   279.233
  ===> Total WRF-GC                        448.292
 max optd  1.9364301E+31
 max taucldi  1.5361583E-02
 max taucldw  1.5094080E-04
 Switching is not necessary as we are already
 in the right domain!
 GIGC_Chunk_Run: Running for in-PET grid #           1
 GIGC_Chunk_Run: Received new grid IM, JM, LM =          15           9
          49
 =================================================
 W R F - G C   T I M E R S
    Domain           1 (Units: s)
 =================================================
  => Coupler Component                       0.613
   -- Physics & Parameterization             0.149
   -- Diagnostics Out                        0.000
  => GEOS-Chem Column                      169.572
  ===> Total Chemistry                     170.184
  => WRF                                   297.477
  ===> Total WRF-GC                        467.662
 max optd  1.9364301E+31
 max taucldi  1.5767602E-02
 max taucldw  1.6160490E-04
 Switching is not necessary as we are already
 in the right domain!
 GIGC_Chunk_Run: Running for in-PET grid #           1
 GIGC_Chunk_Run: Received new grid IM, JM, LM =          15           9
          49
 =================================================
 W R F - G C   T I M E R S
    Domain           1 (Units: s)
 =================================================
  => Coupler Component                       0.651
   -- Physics & Parameterization             0.158
   -- Diagnostics Out                        0.000
  => GEOS-Chem Column                      170.656
  ===> Total Chemistry                     171.307
  => WRF                                   315.676
  ===> Total WRF-GC                        486.983
 max optd  1.9364301E+31
 max taucldi  1.5886931E-02
 max taucldw  1.7114528E-04
 Switching is not necessary as we are already
 in the right domain!
 GIGC_Chunk_Run: Running for in-PET grid #           1
 GIGC_Chunk_Run: Received new grid IM, JM, LM =          15           9
          49
 =================================================
 W R F - G C   T I M E R S
    Domain           1 (Units: s)
 =================================================
  => Coupler Component                       0.689
   -- Physics & Parameterization             0.167
   -- Diagnostics Out                        0.000
  => GEOS-Chem Column                      171.738
  ===> Total Chemistry                     172.427
  => WRF                                   333.840
  ===> Total WRF-GC                        506.267
 max optd  1.9364301E+31
 max taucldi  1.6008696E-02
 max taucldw  3.0005921E-02
 Switching is not necessary as we are already
 in the right domain!
 GIGC_Chunk_Run: Running for in-PET grid #           1
 GIGC_Chunk_Run: Received new grid IM, JM, LM =          15           9
          49
 =================================================
 W R F - G C   T I M E R S
    Domain           1 (Units: s)
 =================================================
  => Coupler Component                       0.726
   -- Physics & Parameterization             0.176
   -- Diagnostics Out                        0.000
  => GEOS-Chem Column                      172.821
  ===> Total Chemistry                     173.547
  => WRF                                   352.062
  ===> Total WRF-GC                        525.609
 max optd  1.9364301E+31
 max taucldi  1.6013317E-02
 max taucldw  7.4842244E-02
 Switching is not necessary as we are already
 in the right domain!
 GIGC_Chunk_Run: Running for in-PET grid #           1
 GIGC_Chunk_Run: Received new grid IM, JM, LM =          15           9
          49
 =================================================
 W R F - G C   T I M E R S
    Domain           1 (Units: s)
 =================================================
  => Coupler Component                       0.762
   -- Physics & Parameterization             0.186
   -- Diagnostics Out                        0.000
  => GEOS-Chem Column                      173.908
  ===> Total Chemistry                     174.670
  => WRF                                   370.388
  ===> Total WRF-GC                        545.058
 max optd  1.9364301E+31
 max taucldi  1.5856106E-02
 max taucldw  0.1214247    
 Switching is not necessary as we are already
 in the right domain!
 GIGC_Chunk_Run: Running for in-PET grid #           1
 GIGC_Chunk_Run: Received new grid IM, JM, LM =          15           9
          49
 =================================================
 W R F - G C   T I M E R S
    Domain           1 (Units: s)
 =================================================
  => Coupler Component                       0.798
   -- Physics & Parameterization             0.195
   -- Diagnostics Out                        0.000
  => GEOS-Chem Column                      174.993
  ===> Total Chemistry                     175.791
  => WRF                                   388.454
  ===> Total WRF-GC                        564.245
 max optd  1.9364301E+31
 max taucldi  1.5794016E-02
 max taucldw  0.1483591    
 Switching is not necessary as we are already
 in the right domain!
 GIGC_Chunk_Run: Running for in-PET grid #           1
 GIGC_Chunk_Run: Received new grid IM, JM, LM =          15           9
          49
 =================================================
 W R F - G C   T I M E R S
    Domain           1 (Units: s)
 =================================================
  => Coupler Component                       0.836
   -- Physics & Parameterization             0.204
   -- Diagnostics Out                        0.000
  => GEOS-Chem Column                      176.088
  ===> Total Chemistry                     176.923
  => WRF                                   406.607
  ===> Total WRF-GC                        583.530
 max optd  1.9364301E+31
 max taucldi  1.5746105E-02
 max taucldw  0.1807515    
 Switching is not necessary as we are already
 in the right domain!
 GIGC_Chunk_Run: Running for in-PET grid #           1
 GIGC_Chunk_Run: Received new grid IM, JM, LM =          15           9
          49
 =================================================
 W R F - G C   T I M E R S
    Domain           1 (Units: s)
 =================================================
  => Coupler Component                       0.872
   -- Physics & Parameterization             0.213
   -- Diagnostics Out                        0.000
  => GEOS-Chem Column                      177.175
  ===> Total Chemistry                     178.047
  => WRF                                   424.854
  ===> Total WRF-GC                        602.901
 max optd  1.9364301E+31
 max taucldi  1.5728388E-02
 max taucldw  0.2147299    
 Switching is not necessary as we are already
 in the right domain!
 GIGC_Chunk_Run: Running for in-PET grid #           1
 GIGC_Chunk_Run: Received new grid IM, JM, LM =          15           9
          49
 =================================================
 W R F - G C   T I M E R S
    Domain           1 (Units: s)
 =================================================
  => Coupler Component                       0.911
   -- Physics & Parameterization             0.223
   -- Diagnostics Out                        0.000
  => GEOS-Chem Column                      178.236
  ===> Total Chemistry                     179.147
  => WRF                                   443.019
  ===> Total WRF-GC                        622.166
 HOURLY EMISSIONS UPDATE TIME     7200.0       0.0
mediation_integrate: med_read_wrf_chem_emissions: Read emissions for time 2018-01-01_02:00:00
 max optd  1.9364301E+31
 max taucldi  1.5526053E-02
 max taucldw  0.2401940    
 Switching is not necessary as we are already
 in the right domain!
 GIGC_Chunk_Run: Running for in-PET grid #           1
 GIGC_Chunk_Run: Received new grid IM, JM, LM =          15           9
          49
 =================================================
 W R F - G C   T I M E R S
    Domain           1 (Units: s)
 =================================================
  => Coupler Component                       0.947
   -- Physics & Parameterization             0.232
   -- Diagnostics Out                        0.000
  => GEOS-Chem Column                      179.323
  ===> Total Chemistry                     180.270
  => WRF                                   461.198
  ===> Total WRF-GC                        641.468
 max optd  1.9364301E+31
 max taucldi  1.5232732E-02
 max taucldw  0.2683774    
 Switching is not necessary as we are already
 in the right domain!
 GIGC_Chunk_Run: Running for in-PET grid #           1
 GIGC_Chunk_Run: Received new grid IM, JM, LM =          15           9
          49
 =================================================
 W R F - G C   T I M E R S
    Domain           1 (Units: s)
 =================================================
  => Coupler Component                       0.985
   -- Physics & Parameterization             0.241
   -- Diagnostics Out                        0.000
  => GEOS-Chem Column                      180.419
  ===> Total Chemistry                     181.404
  => WRF                                   479.386
  ===> Total WRF-GC                        660.790
 max optd  1.9364301E+31
 max taucldi  1.4939691E-02
 max taucldw  0.2883053    
 Switching is not necessary as we are already
 in the right domain!
 GIGC_Chunk_Run: Running for in-PET grid #           1
 GIGC_Chunk_Run: Received new grid IM, JM, LM =          15           9
          49
 =================================================
 W R F - G C   T I M E R S
    Domain           1 (Units: s)
 =================================================
  => Coupler Component                       1.024
   -- Physics & Parameterization             0.250
   -- Diagnostics Out                        0.000
  => GEOS-Chem Column                      181.501
  ===> Total Chemistry                     182.525
  => WRF                                   497.455
  ===> Total WRF-GC                        679.980
 max optd  1.9364301E+31
 max taucldi  1.6042849E-02
 max taucldw  0.7548757    
 Switching is not necessary as we are already
 in the right domain!
 GIGC_Chunk_Run: Running for in-PET grid #           1
 GIGC_Chunk_Run: Received new grid IM, JM, LM =          15           9
          49
 =================================================
 W R F - G C   T I M E R S
    Domain           1 (Units: s)
 =================================================
  => Coupler Component                       1.059
   -- Physics & Parameterization             0.260
   -- Diagnostics Out                        0.000
  => GEOS-Chem Column                      182.588
  ===> Total Chemistry                     183.647
  => WRF                                   515.540
  ===> Total WRF-GC                        699.187
 max optd  1.9364301E+31
 max taucldi  1.7904812E-02
 max taucldw   1.417293    
 Switching is not necessary as we are already
 in the right domain!
 GIGC_Chunk_Run: Running for in-PET grid #           1
 GIGC_Chunk_Run: Received new grid IM, JM, LM =          15           9
          49
 =================================================
 W R F - G C   T I M E R S
    Domain           1 (Units: s)
 =================================================
  => Coupler Component                       1.095
   -- Physics & Parameterization             0.269
   -- Diagnostics Out                        0.000
  => GEOS-Chem Column                      183.663
  ===> Total Chemistry                     184.758
  => WRF                                   533.654
  ===> Total WRF-GC                        718.411
 max optd  1.9364301E+31
 max taucldi  1.9631766E-02
 max taucldw   1.883476    
 Switching is not necessary as we are already
 in the right domain!
 GIGC_Chunk_Run: Running for in-PET grid #           1
 GIGC_Chunk_Run: Received new grid IM, JM, LM =          15           9
          49
 =================================================
 W R F - G C   T I M E R S
    Domain           1 (Units: s)
 =================================================
  => Coupler Component                       1.133
   -- Physics & Parameterization             0.279
   -- Diagnostics Out                        0.000
  => GEOS-Chem Column                      184.756
  ===> Total Chemistry                     185.889
  => WRF                                   551.767
  ===> Total WRF-GC                        737.656
 max optd  1.9364301E+31
 max taucldi  2.1205319E-02
 max taucldw   1.988435    
 Switching is not necessary as we are already
 in the right domain!
 GIGC_Chunk_Run: Running for in-PET grid #           1
 GIGC_Chunk_Run: Received new grid IM, JM, LM =          15           9
          49
 =================================================
 W R F - G C   T I M E R S
    Domain           1 (Units: s)
 =================================================
  => Coupler Component                       1.169
   -- Physics & Parameterization             0.288
   -- Diagnostics Out                        0.000
  => GEOS-Chem Column                      185.838
  ===> Total Chemistry                     187.007
  => WRF                                   569.874
  ===> Total WRF-GC                        756.881
 max optd  1.9364301E+31
 max taucldi  2.1545539E-02
 max taucldw   1.505780    
 Switching is not necessary as we are already
 in the right domain!
 GIGC_Chunk_Run: Running for in-PET grid #           1
 GIGC_Chunk_Run: Received new grid IM, JM, LM =          15           9
          49
 =================================================
 W R F - G C   T I M E R S
    Domain           1 (Units: s)
 =================================================
  => Coupler Component                       1.206
   -- Physics & Parameterization             0.297
   -- Diagnostics Out                        0.000
  => GEOS-Chem Column                      186.927
  ===> Total Chemistry                     188.133
  => WRF                                   587.933
  ===> Total WRF-GC                        776.065
 max optd  1.9364301E+31
 max taucldi  2.1759512E-02
 max taucldw   1.042229    
 Switching is not necessary as we are already
 in the right domain!
 GIGC_Chunk_Run: Running for in-PET grid #           1
 GIGC_Chunk_Run: Received new grid IM, JM, LM =          15           9
          49
 =================================================
 W R F - G C   T I M E R S
    Domain           1 (Units: s)
 =================================================
  => Coupler Component                       1.248
   -- Physics & Parameterization             0.306
   -- Diagnostics Out                        0.000
  => GEOS-Chem Column                      187.999
  ===> Total Chemistry                     189.247
  => WRF                                   605.983
  ===> Total WRF-GC                        795.230
 max optd  1.9364301E+31
 max taucldi  2.2133334E-02
 max taucldw  0.7689713    
 Switching is not necessary as we are already
 in the right domain!
 GIGC_Chunk_Run: Running for in-PET grid #           1
 GIGC_Chunk_Run: Received new grid IM, JM, LM =          15           9
          49
 =================================================
 W R F - G C   T I M E R S
    Domain           1 (Units: s)
 =================================================
  => Coupler Component                       1.286
   -- Physics & Parameterization             0.315
   -- Diagnostics Out                        0.000
  => GEOS-Chem Column                      189.069
  ===> Total Chemistry                     190.354
  => WRF                                   624.129
  ===> Total WRF-GC                        814.483
 max optd  1.9364301E+31
 max taucldi  2.2666739E-02
 max taucldw  0.5584735    
 Switching is not necessary as we are already
 in the right domain!
 GIGC_Chunk_Run: Running for in-PET grid #           1
 GIGC_Chunk_Run: Received new grid IM, JM, LM =          15           9
          49
 =================================================
 W R F - G C   T I M E R S
    Domain           1 (Units: s)
 =================================================
  => Coupler Component                       1.322
   -- Physics & Parameterization             0.324
   -- Diagnostics Out                        0.000
  => GEOS-Chem Column                      190.150
  ===> Total Chemistry                     191.472
  => WRF                                   642.165
  ===> Total WRF-GC                        833.637
 max optd  1.9364301E+31
 max taucldi  2.2913894E-02
 max taucldw  0.6544968    
 Switching is not necessary as we are already
 in the right domain!
 GIGC_Chunk_Run: Running for in-PET grid #           1
 GIGC_Chunk_Run: Received new grid IM, JM, LM =          15           9
          49
 =================================================
 W R F - G C   T I M E R S
    Domain           1 (Units: s)
 =================================================
  => Coupler Component                       1.361
   -- Physics & Parameterization             0.334
   -- Diagnostics Out                        0.000
  => GEOS-Chem Column                      191.235
  ===> Total Chemistry                     192.596
  => WRF                                   660.219
  ===> Total WRF-GC                        852.815
 HOURLY EMISSIONS UPDATE TIME    10800.0       0.0
mediation_integrate: med_read_wrf_chem_emissions: Read emissions for time 2018-01-01_03:00:00
 max optd  1.9364301E+31
 max taucldi  2.4181247E-02
 max taucldw  0.8870056    
 Switching is not necessary as we are already
 in the right domain!
 GIGC_Chunk_Run: Running for in-PET grid #           1
 GIGC_Chunk_Run: Received new grid IM, JM, LM =          15           9
          49
 =================================================
 W R F - G C   T I M E R S
    Domain           1 (Units: s)
 =================================================
  => Coupler Component                       1.396
   -- Physics & Parameterization             0.343
   -- Diagnostics Out                        0.000
  => GEOS-Chem Column                      192.317
  ===> Total Chemistry                     193.713
  => WRF                                   678.316
  ===> Total WRF-GC                        872.029
 max optd  1.9364301E+31
 max taucldi  2.5645062E-02
 max taucldw   1.057214    
 Switching is not necessary as we are already
 in the right domain!
 GIGC_Chunk_Run: Running for in-PET grid #           1
 GIGC_Chunk_Run: Received new grid IM, JM, LM =          15           9
          49
 =================================================
 W R F - G C   T I M E R S
    Domain           1 (Units: s)
 =================================================
  => Coupler Component                       1.433
   -- Physics & Parameterization             0.352
   -- Diagnostics Out                        0.000
  => GEOS-Chem Column                      193.407
  ===> Total Chemistry                     194.840
  => WRF                                   696.376
  ===> Total WRF-GC                        891.216
 max optd  1.9364301E+31
 max taucldi  2.7212230E-02
 max taucldw   1.358108    
 Switching is not necessary as we are already
 in the right domain!
 GIGC_Chunk_Run: Running for in-PET grid #           1
 GIGC_Chunk_Run: Received new grid IM, JM, LM =          15           9
          49
 =================================================
 W R F - G C   T I M E R S
    Domain           1 (Units: s)
 =================================================
  => Coupler Component                       1.470
   -- Physics & Parameterization             0.362
   -- Diagnostics Out                        0.000
  => GEOS-Chem Column                      194.495
  ===> Total Chemistry                     195.965
  => WRF                                   714.447
  ===> Total WRF-GC                        910.412
 max optd  1.9364301E+31
 max taucldi  2.8158616E-02
 max taucldw   1.734516    
 Switching is not necessary as we are already
 in the right domain!
 GIGC_Chunk_Run: Running for in-PET grid #           1
 GIGC_Chunk_Run: Received new grid IM, JM, LM =          15           9
          49
 =================================================
 W R F - G C   T I M E R S
    Domain           1 (Units: s)
 =================================================
  => Coupler Component                       1.505
   -- Physics & Parameterization             0.371
   -- Diagnostics Out                        0.000
  => GEOS-Chem Column                      195.579
  ===> Total Chemistry                     197.084
  => WRF                                   732.502
  ===> Total WRF-GC                        929.586
 max optd  1.9364301E+31
 max taucldi  2.8340051E-02
 max taucldw   1.774334    
 Switching is not necessary as we are already
 in the right domain!
 GIGC_Chunk_Run: Running for in-PET grid #           1
 GIGC_Chunk_Run: Received new grid IM, JM, LM =          15           9
          49
 =================================================
 W R F - G C   T I M E R S
    Domain           1 (Units: s)
 =================================================
  => Coupler Component                       1.543
   -- Physics & Parameterization             0.380
   -- Diagnostics Out                        0.000
  => GEOS-Chem Column                      196.666
  ===> Total Chemistry                     198.209
  => WRF                                   750.540
  ===> Total WRF-GC                        948.749
 max optd  1.9364301E+31
 max taucldi  2.8626895E-02
 max taucldw   1.652056    
 Switching is not necessary as we are already
 in the right domain!
 GIGC_Chunk_Run: Running for in-PET grid #           1
 GIGC_Chunk_Run: Received new grid IM, JM, LM =          15           9
          49
 =================================================
 W R F - G C   T I M E R S
    Domain           1 (Units: s)
 =================================================
  => Coupler Component                       1.579
   -- Physics & Parameterization             0.389
   -- Diagnostics Out                        0.000
  => GEOS-Chem Column                      197.758
  ===> Total Chemistry                     199.337
  => WRF                                   768.860
  ===> Total WRF-GC                        968.197
 max optd  1.9364301E+31
 max taucldi  2.9898249E-02
 max taucldw   1.542384    
 Switching is not necessary as we are already
 in the right domain!
 GIGC_Chunk_Run: Running for in-PET grid #           1
 GIGC_Chunk_Run: Received new grid IM, JM, LM =          15           9
          49
 =================================================
 W R F - G C   T I M E R S
    Domain           1 (Units: s)
 =================================================
  => Coupler Component                       1.614
   -- Physics & Parameterization             0.398
   -- Diagnostics Out                        0.000
  => GEOS-Chem Column                      198.843
  ===> Total Chemistry                     200.457
  => WRF                                   786.994
  ===> Total WRF-GC                        987.452
 max optd  1.9364301E+31
 max taucldi  3.1845771E-02
 max taucldw   1.443663    
 Switching is not necessary as we are already
 in the right domain!
 GIGC_Chunk_Run: Running for in-PET grid #           1
 GIGC_Chunk_Run: Received new grid IM, JM, LM =          15           9
          49
 =================================================
 W R F - G C   T I M E R S
    Domain           1 (Units: s)
 =================================================
  => Coupler Component                       1.650
   -- Physics & Parameterization             0.407
   -- Diagnostics Out                        0.000
  => GEOS-Chem Column                      199.926
  ===> Total Chemistry                     201.576
  => WRF                                   804.991
  ===> Total WRF-GC                       1006.567
 max optd  1.9364301E+31
 max taucldi  3.3444211E-02
 max taucldw   1.362495    
 Switching is not necessary as we are already
 in the right domain!
 GIGC_Chunk_Run: Running for in-PET grid #           1
 GIGC_Chunk_Run: Received new grid IM, JM, LM =          15           9
          49
 =================================================
 W R F - G C   T I M E R S
    Domain           1 (Units: s)
 =================================================
  => Coupler Component                       1.688
   -- Physics & Parameterization             0.417
   -- Diagnostics Out                        0.000
  => GEOS-Chem Column                      201.019
  ===> Total Chemistry                     202.707
  => WRF                                   823.191
  ===> Total WRF-GC                       1025.897
 max optd  1.9364301E+31
 max taucldi  3.4502301E-02
 max taucldw   1.589197    
 Switching is not necessary as we are already
 in the right domain!
 GIGC_Chunk_Run: Running for in-PET grid #           1
 GIGC_Chunk_Run: Received new grid IM, JM, LM =          15           9
          49
 =================================================
 W R F - G C   T I M E R S
    Domain           1 (Units: s)
 =================================================
  => Coupler Component                       1.725
   -- Physics & Parameterization             0.426
   -- Diagnostics Out                        0.000
  => GEOS-Chem Column                      202.107
  ===> Total Chemistry                     203.832
  => WRF                                   841.291
  ===> Total WRF-GC                       1045.124
 max optd  1.9364301E+31
 max taucldi  3.5402942E-02
 max taucldw   1.656891    
 Switching is not necessary as we are already
 in the right domain!
 GIGC_Chunk_Run: Running for in-PET grid #           1
 GIGC_Chunk_Run: Received new grid IM, JM, LM =          15           9
          49
 =================================================
 W R F - G C   T I M E R S
    Domain           1 (Units: s)
 =================================================
  => Coupler Component                       1.765
   -- Physics & Parameterization             0.435
   -- Diagnostics Out                        0.000
  => GEOS-Chem Column                      203.205
  ===> Total Chemistry                     204.970
  => WRF                                   859.347
  ===> Total WRF-GC                       1064.317
 max optd  1.9364301E+31
 max taucldi  3.6247674E-02
 max taucldw   1.626569    
 Switching is not necessary as we are already
 in the right domain!
 GIGC_Chunk_Run: Running for in-PET grid #           1
 GIGC_Chunk_Run: Received new grid IM, JM, LM =          15           9
          49
 =================================================
 W R F - G C   T I M E R S
    Domain           1 (Units: s)
 =================================================
  => Coupler Component                       1.800
   -- Physics & Parameterization             0.445
   -- Diagnostics Out                        0.000
  => GEOS-Chem Column                      204.294
  ===> Total Chemistry                     206.094
  => WRF                                   877.454
  ===> Total WRF-GC                       1083.548
 HOURLY EMISSIONS UPDATE TIME    14400.0       0.0
mediation_integrate: med_read_wrf_chem_emissions: Read emissions for time 2018-01-01_04:00:00
 max optd  1.9364301E+31
 max taucldi  3.8714275E-02
 max taucldw   1.529988    
 Switching is not necessary as we are already
 in the right domain!
 GIGC_Chunk_Run: Running for in-PET grid #           1
 GIGC_Chunk_Run: Received new grid IM, JM, LM =          15           9
          49
 =================================================
 W R F - G C   T I M E R S
    Domain           1 (Units: s)
 =================================================
  => Coupler Component                       1.840
   -- Physics & Parameterization             0.454
   -- Diagnostics Out                        0.000
  => GEOS-Chem Column                      205.386
  ===> Total Chemistry                     207.226
  => WRF                                   895.553
  ===> Total WRF-GC                       1102.779
 max optd  1.9364301E+31
 max taucldi  4.2714380E-02
 max taucldw   1.403761    
 Switching is not necessary as we are already
 in the right domain!
 GIGC_Chunk_Run: Running for in-PET grid #           1
 GIGC_Chunk_Run: Received new grid IM, JM, LM =          15           9
          49
 =================================================
 W R F - G C   T I M E R S
    Domain           1 (Units: s)
 =================================================
  => Coupler Component                       1.875
   -- Physics & Parameterization             0.463
   -- Diagnostics Out                        0.000
  => GEOS-Chem Column                      206.470
  ===> Total Chemistry                     208.345
  => WRF                                   913.653
  ===> Total WRF-GC                       1121.998
 max optd  1.9364301E+31
 max taucldi  4.7112558E-02
 max taucldw   1.294706    
 Switching is not necessary as we are already
 in the right domain!
 GIGC_Chunk_Run: Running for in-PET grid #           1
 GIGC_Chunk_Run: Received new grid IM, JM, LM =          15           9
          49
 =================================================
 W R F - G C   T I M E R S
    Domain           1 (Units: s)
 =================================================
  => Coupler Component                       1.912
   -- Physics & Parameterization             0.472
   -- Diagnostics Out                        0.000
  => GEOS-Chem Column                      207.558
  ===> Total Chemistry                     209.470
  => WRF                                   931.848
  ===> Total WRF-GC                       1141.318
 max optd  1.9364301E+31
 max taucldi  5.4572836E-02
 max taucldw   1.072169    
 Switching is not necessary as we are already
 in the right domain!
 GIGC_Chunk_Run: Running for in-PET grid #           1
 GIGC_Chunk_Run: Received new grid IM, JM, LM =          15           9
          49
 =================================================
 W R F - G C   T I M E R S
    Domain           1 (Units: s)
 =================================================
  => Coupler Component                       1.950
   -- Physics & Parameterization             0.482
   -- Diagnostics Out                        0.000
  => GEOS-Chem Column                      208.644
  ===> Total Chemistry                     210.594
  => WRF                                   949.931
  ===> Total WRF-GC                       1160.525
 max optd  1.9364301E+31
 max taucldi  5.8492813E-02
 max taucldw  0.9031913    
 Switching is not necessary as we are already
 in the right domain!
 GIGC_Chunk_Run: Running for in-PET grid #           1
 GIGC_Chunk_Run: Received new grid IM, JM, LM =          15           9
          49
 =================================================
 W R F - G C   T I M E R S
    Domain           1 (Units: s)
 =================================================
  => Coupler Component                       1.989
   -- Physics & Parameterization             0.491
   -- Diagnostics Out                        0.000
  => GEOS-Chem Column                      209.730
  ===> Total Chemistry                     211.719
  => WRF                                   968.047
  ===> Total WRF-GC                       1179.766
 max optd  1.9364301E+31
 max taucldi  6.0281686E-02
 max taucldw  0.7671651    
 Switching is not necessary as we are already
 in the right domain!
 GIGC_Chunk_Run: Running for in-PET grid #           1
 GIGC_Chunk_Run: Received new grid IM, JM, LM =          15           9
          49
 =================================================
 W R F - G C   T I M E R S
    Domain           1 (Units: s)
 =================================================
  => Coupler Component                       2.024
   -- Physics & Parameterization             0.500
   -- Diagnostics Out                        0.000
  => GEOS-Chem Column                      210.814
  ===> Total Chemistry                     212.838
  => WRF                                   986.163
  ===> Total WRF-GC                       1199.001
 max optd  1.9364301E+31
 max taucldi  6.0588878E-02
 max taucldw  0.6281914    
 Switching is not necessary as we are already
 in the right domain!
 GIGC_Chunk_Run: Running for in-PET grid #           1
 GIGC_Chunk_Run: Received new grid IM, JM, LM =          15           9
          49
 =================================================
 W R F - G C   T I M E R S
    Domain           1 (Units: s)
 =================================================
  => Coupler Component                       2.061
   -- Physics & Parameterization             0.509
   -- Diagnostics Out                        0.000
  => GEOS-Chem Column                      211.907
  ===> Total Chemistry                     213.968
  => WRF                                  1004.324
  ===> Total WRF-GC                       1218.292
 max optd  1.9364301E+31
 max taucldi  5.9111342E-02
 max taucldw  0.4109507    
 Switching is not necessary as we are already
 in the right domain!
 GIGC_Chunk_Run: Running for in-PET grid #           1
 GIGC_Chunk_Run: Received new grid IM, JM, LM =          15           9
          49
 =================================================
 W R F - G C   T I M E R S
    Domain           1 (Units: s)
 =================================================
  => Coupler Component                       2.097
   -- Physics & Parameterization             0.519
   -- Diagnostics Out                        0.000
  => GEOS-Chem Column                      212.991
  ===> Total Chemistry                     215.088
  => WRF                                  1022.392
  ===> Total WRF-GC                       1237.480
 max optd  1.9364301E+31
 max taucldi  5.7249606E-02
 max taucldw  0.2226843    
 Switching is not necessary as we are already
 in the right domain!
 GIGC_Chunk_Run: Running for in-PET grid #           1
 GIGC_Chunk_Run: Received new grid IM, JM, LM =          15           9
          49
 =================================================
 W R F - G C   T I M E R S
    Domain           1 (Units: s)
 =================================================
  => Coupler Component                       2.131
   -- Physics & Parameterization             0.528
   -- Diagnostics Out                        0.000
  => GEOS-Chem Column                      214.074
  ===> Total Chemistry                     216.205
  => WRF                                  1040.513
  ===> Total WRF-GC                       1256.717
 max optd  1.9364301E+31
 max taucldi  5.4010611E-02
 max taucldw  6.4111516E-02
 Switching is not necessary as we are already
 in the right domain!
 GIGC_Chunk_Run: Running for in-PET grid #           1
 GIGC_Chunk_Run: Received new grid IM, JM, LM =          15           9
          49
 =================================================
 W R F - G C   T I M E R S
    Domain           1 (Units: s)
 =================================================
  => Coupler Component                       2.167
   -- Physics & Parameterization             0.537
   -- Diagnostics Out                        0.000
  => GEOS-Chem Column                      215.156
  ===> Total Chemistry                     217.324
  => WRF                                  1058.600
  ===> Total WRF-GC                       1275.923
 max optd  1.9364301E+31
 max taucldi  4.9759410E-02
 max taucldw  1.2385267E-04
 Switching is not necessary as we are already
 in the right domain!
 GIGC_Chunk_Run: Running for in-PET grid #           1
 GIGC_Chunk_Run: Received new grid IM, JM, LM =          15           9
          49
 =================================================
 W R F - G C   T I M E R S
    Domain           1 (Units: s)
 =================================================
  => Coupler Component                       2.205
   -- Physics & Parameterization             0.546
   -- Diagnostics Out                        0.000
  => GEOS-Chem Column                      216.249
  ===> Total Chemistry                     218.455
  => WRF                                  1076.674
  ===> Total WRF-GC                       1295.128
 max optd  1.9364301E+31
 max taucldi  4.5519531E-02
 max taucldw  1.2674520E-04
 Switching is not necessary as we are already
 in the right domain!
 GIGC_Chunk_Run: Running for in-PET grid #           1
 GIGC_Chunk_Run: Received new grid IM, JM, LM =          15           9
          49
 =================================================
 W R F - G C   T I M E R S
    Domain           1 (Units: s)
 =================================================
  => Coupler Component                       2.240
   -- Physics & Parameterization             0.556
   -- Diagnostics Out                        0.000
  => GEOS-Chem Column                      217.335
  ===> Total Chemistry                     219.575
  => WRF                                  1094.699
  ===> Total WRF-GC                       1314.273
 HOURLY EMISSIONS UPDATE TIME    18000.0       0.0
mediation_integrate: med_read_wrf_chem_emissions: Read emissions for time 2018-01-01_05:00:00
 max optd  1.9364301E+31
 max taucldi  4.1414827E-02
 max taucldw  1.3023707E-04
 Switching is not necessary as we are already
 in the right domain!
 GIGC_Chunk_Run: Running for in-PET grid #           1
 GIGC_Chunk_Run: Received new grid IM, JM, LM =          15           9
          49
 =================================================
 W R F - G C   T I M E R S
    Domain           1 (Units: s)
 =================================================
  => Coupler Component                       2.276
   -- Physics & Parameterization             0.565
   -- Diagnostics Out                        0.000
  => GEOS-Chem Column                      218.424
  ===> Total Chemistry                     220.700
  => WRF                                  1112.839
  ===> Total WRF-GC                       1333.539
 max optd  1.9364301E+31
 max taucldi  3.7569106E-02
 max taucldw  1.3395608E-04
 Switching is not necessary as we are already
 in the right domain!
 GIGC_Chunk_Run: Running for in-PET grid #           1
 GIGC_Chunk_Run: Received new grid IM, JM, LM =          15           9
          49
 =================================================
 W R F - G C   T I M E R S
    Domain           1 (Units: s)
 =================================================
  => Coupler Component                       2.311
   -- Physics & Parameterization             0.574
   -- Diagnostics Out                        0.000
  => GEOS-Chem Column                      219.507
  ===> Total Chemistry                     221.818
  => WRF                                  1130.900
  ===> Total WRF-GC                       1352.719
 max optd  1.9364301E+31
 max taucldi  3.3870090E-02
 max taucldw  1.3741550E-04
 Switching is not necessary as we are already
 in the right domain!
 GIGC_Chunk_Run: Running for in-PET grid #           1
 GIGC_Chunk_Run: Received new grid IM, JM, LM =          15           9
          49
 =================================================
 W R F - G C   T I M E R S
    Domain           1 (Units: s)
 =================================================
  => Coupler Component                       2.345
   -- Physics & Parameterization             0.584
   -- Diagnostics Out                        0.000
  => GEOS-Chem Column                      220.592
  ===> Total Chemistry                     222.937
  => WRF                                  1148.978
  ===> Total WRF-GC                       1371.915
 max optd  1.9364301E+31
 max taucldi  3.0398162E-02
 max taucldw  1.4026722E-04
 Switching is not necessary as we are already
 in the right domain!
 GIGC_Chunk_Run: Running for in-PET grid #           1
 GIGC_Chunk_Run: Received new grid IM, JM, LM =          15           9
          49
 =================================================
 W R F - G C   T I M E R S
    Domain           1 (Units: s)
 =================================================
  => Coupler Component                       2.383
   -- Physics & Parameterization             0.593
   -- Diagnostics Out                        0.000
  => GEOS-Chem Column                      221.684
  ===> Total Chemistry                     224.068
  => WRF                                  1167.079
  ===> Total WRF-GC                       1391.146
 max optd  1.9364301E+31
 max taucldi  2.7027963E-02
 max taucldw  1.4217589E-04
 Switching is not necessary as we are already
 in the right domain!
 GIGC_Chunk_Run: Running for in-PET grid #           1
 GIGC_Chunk_Run: Received new grid IM, JM, LM =          15           9
          49
 =================================================
 W R F - G C   T I M E R S
    Domain           1 (Units: s)
 =================================================
  => Coupler Component                       2.418
   -- Physics & Parameterization             0.603
   -- Diagnostics Out                        0.000
  => GEOS-Chem Column                      222.776
  ===> Total Chemistry                     225.194
  => WRF                                  1185.228
  ===> Total WRF-GC                       1410.422
 max optd  1.9364301E+31
 max taucldi  2.4642700E-02
 max taucldw  1.4330540E-04
 Switching is not necessary as we are already
 in the right domain!
 GIGC_Chunk_Run: Running for in-PET grid #           1
 GIGC_Chunk_Run: Received new grid IM, JM, LM =          15           9
          49
 =================================================
 W R F - G C   T I M E R S
    Domain           1 (Units: s)
 =================================================
  => Coupler Component                       2.456
   -- Physics & Parameterization             0.612
   -- Diagnostics Out                        0.000
  => GEOS-Chem Column                      223.866
  ===> Total Chemistry                     226.322
  => WRF                                  1203.281
  ===> Total WRF-GC                       1429.604
 max optd  1.9364301E+31
 max taucldi  2.2692459E-02
 max taucldw  1.4394720E-04
 Switching is not necessary as we are already
 in the right domain!
 GIGC_Chunk_Run: Running for in-PET grid #           1
 GIGC_Chunk_Run: Received new grid IM, JM, LM =          15           9
          49
 =================================================
 W R F - G C   T I M E R S
    Domain           1 (Units: s)
 =================================================
  => Coupler Component                       2.495
   -- Physics & Parameterization             0.621
   -- Diagnostics Out                        0.000
  => GEOS-Chem Column                      224.942
  ===> Total Chemistry                     227.436
  => WRF                                  1221.436
  ===> Total WRF-GC                       1448.873
 max optd  1.9364301E+31
 max taucldi  2.0918716E-02
 max taucldw  1.4429602E-04
 Switching is not necessary as we are already
 in the right domain!
 GIGC_Chunk_Run: Running for in-PET grid #           1
 GIGC_Chunk_Run: Received new grid IM, JM, LM =          15           9
          49
 =================================================
 W R F - G C   T I M E R S
    Domain           1 (Units: s)
 =================================================
  => Coupler Component                       2.528
   -- Physics & Parameterization             0.631
   -- Diagnostics Out                        0.000
  => GEOS-Chem Column                      226.022
  ===> Total Chemistry                     228.550
  => WRF                                  1239.525
  ===> Total WRF-GC                       1468.075
 max optd  1.9364301E+31
 max taucldi  1.9675791E-02
 max taucldw  1.4446412E-04
 Switching is not necessary as we are already
 in the right domain!
 GIGC_Chunk_Run: Running for in-PET grid #           1
 GIGC_Chunk_Run: Received new grid IM, JM, LM =          15           9
          49
 =================================================
 W R F - G C   T I M E R S
    Domain           1 (Units: s)
 =================================================
  => Coupler Component                       2.563
   -- Physics & Parameterization             0.640
   -- Diagnostics Out                        0.000
  => GEOS-Chem Column                      227.107
  ===> Total Chemistry                     229.670
  => WRF                                  1257.672
  ===> Total WRF-GC                       1487.342
 max optd  1.9364301E+31
 max taucldi  1.8012375E-02
 max taucldw  8.4075090E-03
 Switching is not necessary as we are already
 in the right domain!
 GIGC_Chunk_Run: Running for in-PET grid #           1
 GIGC_Chunk_Run: Received new grid IM, JM, LM =          15           9
          49
 =================================================
 W R F - G C   T I M E R S
    Domain           1 (Units: s)
 =================================================
  => Coupler Component                       2.598
   -- Physics & Parameterization             0.649
   -- Diagnostics Out                        0.000
  => GEOS-Chem Column                      228.197
  ===> Total Chemistry                     230.795
  => WRF                                  1276.040
  ===> Total WRF-GC                       1506.835
 max optd  1.9364301E+31
 max taucldi  1.5645908E-02
 max taucldw  1.6538728E-02
 Switching is not necessary as we are already
 in the right domain!
 GIGC_Chunk_Run: Running for in-PET grid #           1
 GIGC_Chunk_Run: Received new grid IM, JM, LM =          15           9
          49
 =================================================
 W R F - G C   T I M E R S
    Domain           1 (Units: s)
 =================================================
  => Coupler Component                       2.633
   -- Physics & Parameterization             0.659
   -- Diagnostics Out                        0.000
  => GEOS-Chem Column                      229.286
  ===> Total Chemistry                     231.919
  => WRF                                  1294.140
  ===> Total WRF-GC                       1526.059
 max optd  1.9364301E+31
 max taucldi  1.3520146E-02
 max taucldw  1.4872135E-02
 Switching is not necessary as we are already
 in the right domain!
 GIGC_Chunk_Run: Running for in-PET grid #           1
 GIGC_Chunk_Run: Received new grid IM, JM, LM =          15           9
          49
 =================================================
 W R F - G C   T I M E R S
    Domain           1 (Units: s)
 =================================================
  => Coupler Component                       2.664
   -- Physics & Parameterization             0.668
   -- Diagnostics Out                        0.000
  => GEOS-Chem Column                      230.372
  ===> Total Chemistry                     233.036
  => WRF                                  1312.235
  ===> Total WRF-GC                       1545.271
 HOURLY EMISSIONS UPDATE TIME    21600.0       0.0
mediation_integrate: med_read_wrf_chem_emissions: Read emissions for time 2018-01-01_06:00:00
 max optd  1.9364301E+31
 max taucldi  1.2826519E-02
 max taucldw  0.2068999    
 Switching is not necessary as we are already
 in the right domain!
 GIGC_Chunk_Run: Running for in-PET grid #           1
 GIGC_Chunk_Run: Received new grid IM, JM, LM =          15           9
          49
 =================================================
 W R F - G C   T I M E R S
    Domain           1 (Units: s)
 =================================================
  => Coupler Component                       2.700
   -- Physics & Parameterization             0.678
   -- Diagnostics Out                        0.000
  => GEOS-Chem Column                      231.462
  ===> Total Chemistry                     234.162
  => WRF                                  1770.883
  ===> Total WRF-GC                       2005.044
 max optd  1.9364301E+31
 max taucldi  2.1373758E-02
 max taucldw  0.7111796    
 Switching is not necessary as we are already
 in the right domain!
 GIGC_Chunk_Run: Running for in-PET grid #           1
 GIGC_Chunk_Run: Received new grid IM, JM, LM =          15           9
          49
 =================================================
 W R F - G C   T I M E R S
    Domain           1 (Units: s)
 =================================================
  => Coupler Component                       2.735
   -- Physics & Parameterization             0.687
   -- Diagnostics Out                        0.000
  => GEOS-Chem Column                      232.554
  ===> Total Chemistry                     235.289
  => WRF                                  1788.990
  ===> Total WRF-GC                       2024.278
 max optd  1.9364301E+31
 max taucldi  2.9651107E-02
 max taucldw  0.7311673    
 Switching is not necessary as we are already
 in the right domain!
 GIGC_Chunk_Run: Running for in-PET grid #           1
 GIGC_Chunk_Run: Received new grid IM, JM, LM =          15           9
          49
 =================================================
 W R F - G C   T I M E R S
    Domain           1 (Units: s)
 =================================================
  => Coupler Component                       2.772
   -- Physics & Parameterization             0.696
   -- Diagnostics Out                        0.000
  => GEOS-Chem Column                      233.636
  ===> Total Chemistry                     236.408
  => WRF                                  1807.235
  ===> Total WRF-GC                       2043.644
 max optd  1.9364301E+31
 max taucldi  4.4446614E-02
 max taucldw  0.8965871    
 Switching is not necessary as we are already
 in the right domain!
 GIGC_Chunk_Run: Running for in-PET grid #           1
 GIGC_Chunk_Run: Received new grid IM, JM, LM =          15           9
          49
 =================================================
 W R F - G C   T I M E R S
    Domain           1 (Units: s)
 =================================================
  => Coupler Component                       2.810
[...]
  => GEOS-Chem Column                      282.786
  ===> Total Chemistry                     287.208
  => WRF                                  2623.698
  ===> Total WRF-GC                       2910.906
 HOURLY EMISSIONS UPDATE TIME    36000.0       0.0
mediation_integrate: med_read_wrf_chem_emissions: Read emissions for time 2018-01-01_10:00:00
 max optd  1.9364301E+31
 max taucldi  7.7604003E-02
 max taucldw   2.488926    
 Switching is not necessary as we are already
 in the right domain!
 GIGC_Chunk_Run: Running for in-PET grid #           1
 GIGC_Chunk_Run: Received new grid IM, JM, LM =          15           9
          49
 =================================================
 W R F - G C   T I M E R S
    Domain           1 (Units: s)
 =================================================
  => Coupler Component                       4.458
   -- Physics & Parameterization             1.122
   -- Diagnostics Out                        0.000
  => GEOS-Chem Column                      283.877
  ===> Total Chemistry                     288.335
  => WRF                                  2641.890
  ===> Total WRF-GC                       2930.224
 max optd  1.9364301E+31
 max taucldi  7.9621270E-02
 max taucldw   2.448527    
 Switching is not necessary as we are already
 in the right domain!
 GIGC_Chunk_Run: Running for in-PET grid #           1
 GIGC_Chunk_Run: Received new grid IM, JM, LM =          15           9
          49
 =================================================
 W R F - G C   T I M E R S
    Domain           1 (Units: s)
 =================================================
  => Coupler Component                       4.497
   -- Physics & Parameterization             1.131
   -- Diagnostics Out                        0.000
  => GEOS-Chem Column                      284.967
  ===> Total Chemistry                     289.464
  => WRF                                  2660.009
  ===> Total WRF-GC                       2949.473
 max optd  1.9364301E+31
 max taucldi  8.0140516E-02
 max taucldw   2.366982    
 Switching is not necessary as we are already
 in the right domain!
 GIGC_Chunk_Run: Running for in-PET grid #           1
 GIGC_Chunk_Run: Received new grid IM, JM, LM =          15           9
          49
 =================================================
 W R F - G C   T I M E R S
    Domain           1 (Units: s)
 =================================================
  => Coupler Component                       4.533
   -- Physics & Parameterization             1.140
   -- Diagnostics Out                        0.000
  => GEOS-Chem Column                      286.063
  ===> Total Chemistry                     290.596
  => WRF                                  2678.118
  ===> Total WRF-GC                       2968.713
 max optd  1.9364301E+31
 max taucldi  7.9042614E-02
 max taucldw   2.249376    
 Switching is not necessary as we are already
 in the right domain!
 GIGC_Chunk_Run: Running for in-PET grid #           1
 GIGC_Chunk_Run: Received new grid IM, JM, LM =          15           9
          49
 =================================================
 W R F - G C   T I M E R S
    Domain           1 (Units: s)
 =================================================
  => Coupler Component                       4.572
   -- Physics & Parameterization             1.150
   -- Diagnostics Out                        0.000
  => GEOS-Chem Column                      287.160
  ===> Total Chemistry                     291.732
  => WRF                                  2696.312
  ===> Total WRF-GC                       2988.044
 max optd  1.9364301E+31
 max taucldi  7.7999353E-02
 max taucldw   2.181802    
 Switching is not necessary as we are already
 in the right domain!
 GIGC_Chunk_Run: Running for in-PET grid #           1
 GIGC_Chunk_Run: Received new grid IM, JM, LM =          15           9
          49
 =================================================
 W R F - G C   T I M E R S
    Domain           1 (Units: s)
 =================================================
  => Coupler Component                       4.612
   -- Physics & Parameterization             1.159
   -- Diagnostics Out                        0.000
  => GEOS-Chem Column                      288.243
  ===> Total Chemistry                     292.854
  => WRF                                  2714.451
  ===> Total WRF-GC                       3007.305
 max optd  1.9364301E+31
 max taucldi  7.7255249E-02
 max taucldw   2.267879    
 Switching is not necessary as we are already
 in the right domain!
 GIGC_Chunk_Run: Running for in-PET grid #           1
 GIGC_Chunk_Run: Received new grid IM, JM, LM =          15           9
          49
 =================================================
 W R F - G C   T I M E R S
    Domain           1 (Units: s)
 =================================================
  => Coupler Component                       4.647
   -- Physics & Parameterization             1.168
   -- Diagnostics Out                        0.000
  => GEOS-Chem Column                      289.332
  ===> Total Chemistry                     293.979
  => WRF                                  2732.526
  ===> Total WRF-GC                       3026.505
 max optd  1.9364301E+31
 max taucldi  7.9447180E-02
 max taucldw   2.449491    
 Switching is not necessary as we are already
 in the right domain!
 GIGC_Chunk_Run: Running for in-PET grid #           1
 GIGC_Chunk_Run: Received new grid IM, JM, LM =          15           9
          49
 =================================================
 W R F - G C   T I M E R S
    Domain           1 (Units: s)
 =================================================
  => Coupler Component                       4.689
   -- Physics & Parameterization             1.177
   -- Diagnostics Out                        0.000
  => GEOS-Chem Column                      290.427
  ===> Total Chemistry                     295.115
  => WRF                                  2750.681
  ===> Total WRF-GC                       3045.796
 max optd  1.9364301E+31
 max taucldi  8.1502527E-02
 max taucldw   2.593783    
 Switching is not necessary as we are already
 in the right domain!
 GIGC_Chunk_Run: Running for in-PET grid #           1
 GIGC_Chunk_Run: Received new grid IM, JM, LM =          15           9
          49
 =================================================
 W R F - G C   T I M E R S
    Domain           1 (Units: s)
 =================================================
  => Coupler Component                       4.724
   -- Physics & Parameterization             1.187
   -- Diagnostics Out                        0.000
  => GEOS-Chem Column                      291.515
  ===> Total Chemistry                     296.240
  => WRF                                  2768.799
  ===> Total WRF-GC                       3065.039
 max optd  1.9364301E+31
 max taucldi  7.7879161E-02
 max taucldw   2.642777    
 Switching is not necessary as we are already
 in the right domain!
 GIGC_Chunk_Run: Running for in-PET grid #           1
 GIGC_Chunk_Run: Received new grid IM, JM, LM =          15           9
          49
 =================================================
 W R F - G C   T I M E R S
    Domain           1 (Units: s)
 =================================================
  => Coupler Component                       4.764
   -- Physics & Parameterization             1.196
   -- Diagnostics Out                        0.000
  => GEOS-Chem Column                      292.609
  ===> Total Chemistry                     297.373
  => WRF                                  2786.898
  ===> Total WRF-GC                       3084.272
 max optd  1.9364301E+31
 max taucldi  6.9227755E-02
 max taucldw   2.656521    
 Switching is not necessary as we are already
 in the right domain!
 GIGC_Chunk_Run: Running for in-PET grid #           1
 GIGC_Chunk_Run: Received new grid IM, JM, LM =          15           9
          49
 =================================================
 W R F - G C   T I M E R S
    Domain           1 (Units: s)
 =================================================
  => Coupler Component                       4.802
   -- Physics & Parameterization             1.205
   -- Diagnostics Out                        0.000
  => GEOS-Chem Column                      293.703
  ===> Total Chemistry                     298.505
  => WRF                                  2805.075
  ===> Total WRF-GC                       3103.580
 max optd  1.9364301E+31
 max taucldi  6.2966630E-02
 max taucldw   2.652929    
 Switching is not necessary as we are already
 in the right domain!
 GIGC_Chunk_Run: Running for in-PET grid #           1
 GIGC_Chunk_Run: Received new grid IM, JM, LM =          15           9
          49
 =================================================
 W R F - G C   T I M E R S
    Domain           1 (Units: s)
 =================================================
  => Coupler Component                       4.839
   -- Physics & Parameterization             1.214
   -- Diagnostics Out                        0.000
  => GEOS-Chem Column                      294.789
  ===> Total Chemistry                     299.627
  => WRF                                  2823.187
  ===> Total WRF-GC                       3122.815
 max optd  1.9364301E+31
 max taucldi  5.9252802E-02
 max taucldw   2.572468    
 Switching is not necessary as we are already
 in the right domain!
 GIGC_Chunk_Run: Running for in-PET grid #           1
 GIGC_Chunk_Run: Received new grid IM, JM, LM =          15           9
          49
 =================================================
 W R F - G C   T I M E R S
    Domain           1 (Units: s)
 =================================================
  => Coupler Component                       4.874
   -- Physics & Parameterization             1.223
   -- Diagnostics Out                        0.000
  => GEOS-Chem Column                      295.871
  ===> Total Chemistry                     300.745
  => WRF                                  2841.359
  ===> Total WRF-GC                       3142.104
 HOURLY EMISSIONS UPDATE TIME    39600.0       0.0
mediation_integrate: med_read_wrf_chem_emissions: Read emissions for time 2018-01-01_11:00:00
 max optd  1.9364301E+31
 max taucldi  5.8554277E-02
 max taucldw   2.451728    
 Switching is not necessary as we are already
 in the right domain!
 GIGC_Chunk_Run: Running for in-PET grid #           1
 GIGC_Chunk_Run: Received new grid IM, JM, LM =          15           9
          49
 =================================================
 W R F - G C   T I M E R S
    Domain           1 (Units: s)
 =================================================
  => Coupler Component                       4.911
   -- Physics & Parameterization             1.233
   -- Diagnostics Out                        0.000
  => GEOS-Chem Column                      296.953
  ===> Total Chemistry                     301.864
  => WRF                                  2859.520
  ===> Total WRF-GC                       3161.384
 max optd  1.9364301E+31
 max taucldi  5.7766084E-02
 max taucldw   2.298336    
 Switching is not necessary as we are already
 in the right domain!
 GIGC_Chunk_Run: Running for in-PET grid #           1
 GIGC_Chunk_Run: Received new grid IM, JM, LM =          15           9
          49
 =================================================
 W R F - G C   T I M E R S
    Domain           1 (Units: s)
 =================================================
  => Coupler Component                       4.946
   -- Physics & Parameterization             1.242
   -- Diagnostics Out                        0.000
  => GEOS-Chem Column                      298.039
  ===> Total Chemistry                     302.986
  => WRF                                  2877.624
  ===> Total WRF-GC                       3180.610
 max optd  1.9364301E+31
 max taucldi  5.6555502E-02
 max taucldw   2.222023    
 Switching is not necessary as we are already
 in the right domain!
 GIGC_Chunk_Run: Running for in-PET grid #           1
 GIGC_Chunk_Run: Received new grid IM, JM, LM =          15           9
          49
 =================================================
 W R F - G C   T I M E R S
    Domain           1 (Units: s)
 =================================================
  => Coupler Component                       4.985
   -- Physics & Parameterization             1.251
   -- Diagnostics Out                        0.000
  => GEOS-Chem Column                      299.133
  ===> Total Chemistry                     304.119
  => WRF                                  2895.835
  ===> Total WRF-GC                       3199.954
 max optd  1.9364301E+31
 max taucldi  5.6469169E-02
 max taucldw   2.310022    
 Switching is not necessary as we are already
 in the right domain!
 GIGC_Chunk_Run: Running for in-PET grid #           1
 GIGC_Chunk_Run: Received new grid IM, JM, LM =          15           9
          49
 =================================================
 W R F - G C   T I M E R S
    Domain           1 (Units: s)
 =================================================
  => Coupler Component                       5.024
   -- Physics & Parameterization             1.260
   -- Diagnostics Out                        0.000
  => GEOS-Chem Column                      300.231
  ===> Total Chemistry                     305.255
  => WRF                                  2914.075
  ===> Total WRF-GC                       3219.331
 max optd  1.9364301E+31
 max taucldi  5.9867777E-02
 max taucldw   2.174451    
 Switching is not necessary as we are already
 in the right domain!
 GIGC_Chunk_Run: Running for in-PET grid #           1
 GIGC_Chunk_Run: Received new grid IM, JM, LM =          15           9
          49
 =================================================
 W R F - G C   T I M E R S
    Domain           1 (Units: s)
 =================================================
  => Coupler Component                       5.067
   -- Physics & Parameterization             1.269
   -- Diagnostics Out                        0.000
  => GEOS-Chem Column                      301.325
  ===> Total Chemistry                     306.392
  => WRF                                  2932.450
  ===> Total WRF-GC                       3238.842
 max optd  1.9364301E+31
 max taucldi  6.2628411E-02
 max taucldw   1.871464    
 Switching is not necessary as we are already
 in the right domain!
 GIGC_Chunk_Run: Running for in-PET grid #           1
 GIGC_Chunk_Run: Received new grid IM, JM, LM =          15           9
          49
 =================================================
 W R F - G C   T I M E R S
    Domain           1 (Units: s)
 =================================================
  => Coupler Component                       5.104
   -- Physics & Parameterization             1.278
   -- Diagnostics Out                        0.000
  => GEOS-Chem Column                      302.407
  ===> Total Chemistry                     307.511
  => WRF                                  2950.806
  ===> Total WRF-GC                       3258.317
 max optd  1.9364301E+31
 max taucldi  6.4502656E-02
 max taucldw   1.795030    
 Switching is not necessary as we are already
 in the right domain!
 GIGC_Chunk_Run: Running for in-PET grid #           1
 GIGC_Chunk_Run: Received new grid IM, JM, LM =          15           9
          49
 =================================================
 W R F - G C   T I M E R S
    Domain           1 (Units: s)
 =================================================
  => Coupler Component                       5.143
   -- Physics & Parameterization             1.287
   -- Diagnostics Out                        0.000
  => GEOS-Chem Column                      303.502
  ===> Total Chemistry                     308.645
  => WRF                                  2969.317
  ===> Total WRF-GC                       3277.963
 max optd  1.9364301E+31
 max taucldi  6.5029278E-02
 max taucldw   1.663228    
 Switching is not necessary as we are already
 in the right domain!
 GIGC_Chunk_Run: Running for in-PET grid #           1
 GIGC_Chunk_Run: Received new grid IM, JM, LM =          15           9
          49
 =================================================
 W R F - G C   T I M E R S
    Domain           1 (Units: s)
 =================================================
  => Coupler Component                       5.180
   -- Physics & Parameterization             1.296
   -- Diagnostics Out                        0.000
  => GEOS-Chem Column                      304.600
  ===> Total Chemistry                     309.780
  => WRF                                  2987.848
  ===> Total WRF-GC                       3297.628
 max optd  1.9364301E+31
 max taucldi  6.3755803E-02
 max taucldw   1.490817    
 Switching is not necessary as we are already
 in the right domain!
 GIGC_Chunk_Run: Running for in-PET grid #           1
 GIGC_Chunk_Run: Received new grid IM, JM, LM =          15           9
          49
 =================================================
 W R F - G C   T I M E R S
    Domain           1 (Units: s)
 =================================================
  => Coupler Component                       5.216
   -- Physics & Parameterization             1.305
   -- Diagnostics Out                        0.000
  => GEOS-Chem Column                      305.680
  ===> Total Chemistry                     310.896
  => WRF                                  3006.496
  ===> Total WRF-GC                       3317.392
 max optd  1.9364301E+31
 max taucldi  6.3034073E-02
 max taucldw   1.016106    
 Switching is not necessary as we are already
 in the right domain!
 GIGC_Chunk_Run: Running for in-PET grid #           1
 GIGC_Chunk_Run: Received new grid IM, JM, LM =          15           9
          49
 =================================================
 W R F - G C   T I M E R S
    Domain           1 (Units: s)
 =================================================
  => Coupler Component                       5.256
   -- Physics & Parameterization             1.315
   -- Diagnostics Out                        0.000
  => GEOS-Chem Column                      306.776
  ===> Total Chemistry                     312.032
  => WRF                                  3025.375
  ===> Total WRF-GC                       3337.407
 max optd  1.9364301E+31
 max taucldi  6.1067682E-02
 max taucldw  0.7347715    
 Switching is not necessary as we are already
 in the right domain!
 GIGC_Chunk_Run: Running for in-PET grid #           1
 GIGC_Chunk_Run: Received new grid IM, JM, LM =          15           9
          49
 =================================================
 W R F - G C   T I M E R S
    Domain           1 (Units: s)
 =================================================
  => Coupler Component                       5.293
   -- Physics & Parameterization             1.324
   -- Diagnostics Out                        0.000
  => GEOS-Chem Column                      307.845
  ===> Total Chemistry                     313.138
  => WRF                                  3044.141
  ===> Total WRF-GC                       3357.278
 max optd  1.9364301E+31
 max taucldi  5.8733210E-02
 max taucldw  0.4728047    
 Switching is not necessary as we are already
 in the right domain!
 GIGC_Chunk_Run: Running for in-PET grid #           1
 GIGC_Chunk_Run: Received new grid IM, JM, LM =          15           9
          49
 =================================================
 W R F - G C   T I M E R S
    Domain           1 (Units: s)
 =================================================
  => Coupler Component                       5.316
   -- Physics & Parameterization             1.334
   -- Diagnostics Out                        0.000
  => GEOS-Chem Column                      308.972
  ===> Total Chemistry                     314.288
  => WRF                                  3062.873
  ===> Total WRF-GC                       3377.161
d01 2018-01-01_12:00:00 wrf: SUCCESS COMPLETE WRF
