taskid: 1491 hostname: ip-172-31-5-65
Quilting with   1 groups of   0 I/O tasks.
 Ntasks in X           64 , ntasks in Y           72
--- WARNING: traj_opt is zero, but num_traj is not zero; setting num_traj to zero.
--- NOTE: sst_update is 0, setting io_form_auxinput4 = 0 and auxinput4_interval = 0 for all domains
--- NOTE: grid_fdda is 0 for domain      1, setting gfdda interval and ending time to 0 for that domain.
--- NOTE: both grid_sfdda and pxlsm_soil_nudge are 0 for domain      1, setting sgfdda interval and ending time to 0 for that domain.
--- NOTE: obs_nudge_opt is 0 for domain      1, setting obs nudging interval and ending time to 0 for that domain.
--- NOTE: bl_pbl_physics /= 4, implies mfshconv must be 0, resetting
Need MYNN PBL for icloud_bl = 1, resetting to 0
*************************************
No physics suite selected.
Physics options will be used directly from the namelist.
*************************************
--- NOTE: RRTMG radiation is in use, setting:  levsiz=59, alevsiz=12, no_src_types=6
--- NOTE: num_soil_layers has been set to      4
WRF V3.9.1.1 MODEL
 *************************************
 Parent domain
 ids,ide,jds,jde            1         950           1         650
 ims,ime,jms,jme          279         307         202         224
 ips,ipe,jps,jpe          286         300         209         217
 *************************************
DYNAMICS OPTION: Eulerian Mass Coordinate
   alloc_space_field: domain            1 ,              203623800  bytes allocated
  med_initialdata_input: calling input_input
Max map factor in domain 1 =  1.40. Scale the dt in the model accordingly.
INPUT LandUse = "USGS"
 LANDUSE TYPE = "USGS" FOUND          33  CATEGORIES           2  SEASONS WATER CATEGORY =           16  SNOW CATEGORY =           24
INITIALIZE THREE Noah LSM RELATED TABLES
*****************************************************************
  __          _______  ______       _____  _____ _    _ _____
  \ \        / /  __ \|  ____|     / ____|/ ____| |  | |  __ \
   \ \  /\  / /| |__) | |__ ______| |  __| |    | |__| | |__) |
    \ \/  \/ / |  _  /|  __|______| | |_ | |    |  __  |  ___/
     \  /\  /  | | \ \| |         | |__| | |____| |  | | |
      \/  \/   |_|  \_\_|          \_____|\_____|_|  |_|_|
*****************************************************************
         WRF-GC MODEL, VERSION 1811.11 - WRF BINDINGS
 For errors, suggestions & feedback email linhaipeng@pku.edu.cn
*****************************************************************
    This is domain            1
 ### GIGC_Stateful_Mod: Root CPU, after READ_INPUT_FILE
  Linoz Data:  O3 climatology :                  z*=10, 12, ..., 58                             2.700E-08 1.083E-05
  Linoz Data:  Temperature climatology :         z*=10, 12, ..., 58                             1.859E+02 2.904E+02
  Linoz Data:  Column O3 above box climalology : z*=10, 12, ..., 58                             7.538E-02 3.770E+02
  Linoz Data:  P-L O3 climatology (mr/s):        z*=10, 12, ..., 58                            -1.590E-10 2.835E-11
  Linoz Data:  d(P-L)/dO3 (1/s) :                z*=10, 12, ..., 58                            -8.386E-04 7.556E-09
  Linoz Data:  d(P-L)/dT (mr/K) :                z*=10, 12, ..., 58                            -5.742E-12 4.615E-14
  Linoz Data:  d(P-L)/d(column O3) (mr/DU) :     z*=10, 12, ..., 58                            -1.921E-12 5.038E-10
 ### GIGC_Stateful_Mod: Root CPU, after LINOZ_READ
 %%%%%%%%% GIGC IN-PET GRID SWITCHING HACKS %%%%%%%%%
     (Not very) Proudly brought to you by hplin      
 Some debug information:
 ID:           1
 IM, JM, LM:          15           9          49  will be set as PAR
 Allocs: CMN T GC F
 RC at entry-point:           0
 %%%%%%%%%%%%%%%%%%%%%%%%%%%%%%%%%%%%%%%%%%%%%%%%%%%%
 No need to switch HcoState for ID           1
 Exit RC:            0
 %%%%%%%%%    FINISHED GIGC_Switch_Dims    %%%%%%%%%
 GIGC_Chunk_Init: Received new grid IM, JM, LM =          15           9
          49
     ### GIGC_INIT_SIMULATION: after Input_Opt% setups
     ### GIGC_INIT_SIMULATION: after GC_Init_All
     ### GIGC_INIT_SIMULATION: after GC_Init_Extra
     ### GIGC_INIT_SIMULATION: after INIT_FJX
 # GIGC_CHUNK_MOD: after SV save, ID =           1
 WRFGC chemics_init: Following information regarding Input_Opt% (for all doms)
 After domain           1
 HPC:  T
 LPRT:  F
 DoConv:  T
 DoDryDep:  T
 DoEmis:  T
 DoChem:  T
 DoTurb:  T
 DoWetDep:  T

 tropopause_init: DONE intialized domain            1

 mediation_integrate: med_read_wrf_chem_emissions: Open file wrfchemi_00z_d01
 HOURLY EMISSIONS UPDATE TIME        0.0       0.0
mediation_integrate: med_read_wrf_chem_emissions: Read emissions for time 2018-01-01_00:00:00
open_aux_u : error opening wrffirechemi_d01_2018-01-01_00:00:00 for reading. 100
open_aux_u : error opening wrfchemi_gocart_bg_d01 for reading. 100
d01 2018-01-01_00:00:00 Input data processed for aux input   8 for domain   1
open_aux_u : error opening wrfchemv_d01 for reading. 100
 Tile Strategy is not specified. Assuming 1D-Y
WRF TILE   1 IS    286 IE    300 JS    209 JE    217
WRF NUMBER OF TILES =   1
 max optd  8.3136810E+12
 max taucldi  0.0000000E+00
 max taucldw  0.0000000E+00
 =================================================
 W R F - G C   T I M E R S
    Domain           1 (Units: s)
 =================================================
  => Coupler Component                       0.032
   -- Physics & Parameterization             0.001
   -- Diagnostics Out                        0.000
  => GEOS-Chem Column                        0.000
  ===> Total Chemistry                       0.032
  => WRF                                     0.000
  ===> Total WRF-GC                          0.032
 max optd  8.3136810E+12
 max taucldi  1.0000006E-14
 max taucldw  1.0000006E-14
 %%%%%%%%% GIGC IN-PET GRID SWITCHING HACKS %%%%%%%%%
     (Not very) Proudly brought to you by hplin      
 Some debug information:
 ID:           1
 IM, JM, LM:          15           9          49  will be set as PAR
 Allocs: CMN T GC T
 RC at entry-point:           0
 %%%%%%%%%%%%%%%%%%%%%%%%%%%%%%%%%%%%%%%%%%%%%%%%%%%%
 No need to switch HcoState for ID           1
 Debug HcoState nSpc, NX, NY, NZ         163          15           9          49
 Exit RC:            0
 %%%%%%%%%    FINISHED GIGC_Switch_Dims    %%%%%%%%%
 GIGC_Chunk_Run: Running for in-PET grid #           1
 GIGC_Chunk_Run: Received new grid IM, JM, LM =          15           9
          49
HEMCO: Opening /fsx/HEMCO/BIOFUEL/v2014-07/biofuel.geos.4x5.nc
HEMCO: Opening /fsx/HEMCO/BROMINE/v2015-02/Bromocarb_Liang2010.nc
HEMCO: Opening /fsx/HEMCO/ACET/v2014-07/ACET_seawater.generic.1x1.nc
HEMCO: Opening /fsx/HEMCO/SOILNOX/v2014-07/DepReservoirDefault.nc
HEMCO: Opening /fsx/HEMCO/SOILNOX/v2014-07/soilNOx.landtype.generic.025x025.1L.nc
HEMCO: Opening /fsx/HEMCO/SOILNOX/v2014-07/soilNOx.climate.generic.05x05.nc
HEMCO: Opening /fsx/HEMCO/DUST_DEAD/v2014-07/dst_tibds.geos.4x5.nc
HEMCO: Opening /fsx/HEMCO/DUST_DEAD/v2014-07/GOCART_src_fn.geos.4x5.nc
HEMCO: Opening /fsx/HEMCO/MEGAN/v2018-05/MEGAN2.1_EF.geos.025x03125.nc
HEMCO: Opening /fsx/HEMCO/MEGAN/v2017-07/CLM4_PFT.geos.025x03125.nc
HEMCO: Opening /fsx/HEMCO/TIMEZONES/v2015-02/timezones_voronoi_1x1.nc
HEMCO: Opening /fsx/HEMCO/STRAT/v2015-01/Bry/GEOSCCM_Bry.200701.day.nc
HEMCO: Opening /fsx/HEMCO/STRAT/v2015-01/Bry/GEOSCCM_Bry.200701.night.nc
HEMCO: Opening /fsx/HEMCO/OMOC/v2018-01/OMOC.DJF.01x01.nc
HEMCO: Opening /fsx/HEMCO/OMOC/v2018-01/OMOC.MAM.01x01.nc
HEMCO: Opening /fsx/HEMCO/OMOC/v2018-01/OMOC.JJA.01x01.nc
HEMCO: Opening /fsx/HEMCO/OMOC/v2018-01/OMOC.SON.01x01.nc
HEMCO: Opening /fsx/HEMCO/AnnualScalar/v2014-07/AnnualScalar.geos.1x1.nc
HEMCO: Opening /fsx/HEMCO/EDGARv42/v2015-02/NO/EDGAR_hourly_NOxScal.nc
HEMCO: Opening /fsx/HEMCO/MASKS/v2018-09/EMEP_mask.geos.1x1.20151222.nc
HEMCO: Opening /fsx/HEMCO/MASKS/v2018-09/Canada_mask.geos.1x1.nc
HEMCO: Opening /fsx/HEMCO/MASKS/v2018-09/SE_Asia_mask.generic.1x1.nc
HEMCO: Opening /fsx/HEMCO/MASKS/v2018-09/MIX_Asia_mask.generic.025x025.nc
HEMCO: Opening /fsx/HEMCO/MASKS/v2018-09/CONUS_Mask.01x01.nc
HEMCO: Opening /fsx/HEMCO/MASKS/v2018-09/AF_LANDMASK.geos.05x0666.global.nc
HEMCO: Opening /fsx/HEMCO/MASKS/v2018-09/China_mask.generic.1x1.nc
HEMCO: Opening /fsx/HEMCO/MASKS/v2018-09/India_mask.generic.1x1.nc
HEMCO: Opening /fsx/HEMCO/AnnualScalar/v2014-07/AnnualScalar.geos.1x1.nc
HEMCO: Opening /fsx/HEMCO/NH3/v2014-07/NH3_geos.4x5.nc
HEMCO: Opening /fsx/HEMCO/NH3/v2018-04/NH3_Arctic_seabirds.nc
HEMCO: Opening /fsx/HEMCO/CEDS/v2018-08/2014/NO-em-anthro_CMIP_CEDS_2014.nc
HEMCO: Opening /fsx/HEMCO/CEDS/v2018-08/2014/CO-em-anthro_CMIP_CEDS_2014.nc
HEMCO: Opening /fsx/HEMCO/CEDS/v2018-08/2014/SO2-em-anthro_CMIP_CEDS_2014.nc
HEMCO: Opening /fsx/HEMCO/CEDS/v2018-08/2014/NH3-em-anthro_CMIP_CEDS_2014.nc
HEMCO: Opening /fsx/HEMCO/CEDS/v2018-08/2014/BC-em-anthro_CMIP_CEDS_2014.nc
HEMCO: Opening /fsx/HEMCO/CEDS/v2018-08/2014/OC-em-anthro_CMIP_CEDS_2014.nc
HEMCO: Opening /fsx/HEMCO/CEDS/v2018-08/2014/EOH-em-anthro_CMIP_CEDS_2014.nc
HEMCO: Opening /fsx/HEMCO/CEDS/v2018-08/2014/C2H6-em-anthro_CMIP_CEDS_2014.nc
HEMCO: Opening /fsx/HEMCO/CEDS/v2018-08/2014/C3H8-em-anthro_CMIP_CEDS_2014.nc
HEMCO: Opening /fsx/HEMCO/CEDS/v2018-08/2014/ALK4_butanes-em-anthro_CMIP_CEDS_2014.nc
HEMCO: Opening /fsx/HEMCO/CEDS/v2018-08/2014/ALK4_pentanes-em-anthro_CMIP_CEDS_2014.nc
HEMCO: Opening /fsx/HEMCO/CEDS/v2018-08/2014/ALK4_hexanes-em-anthro_CMIP_CEDS_2014.nc
HEMCO: Opening /fsx/HEMCO/CEDS/v2018-08/2014/PRPE-em-anthro_CMIP_CEDS_2014.nc
HEMCO: Opening /fsx/HEMCO/CEDS/v2018-08/2014/BENZ-em-anthro_CMIP_CEDS_2014.nc
HEMCO: Opening /fsx/HEMCO/CEDS/v2018-08/2014/TOLU-em-anthro_CMIP_CEDS_2014.nc
HEMCO: Opening /fsx/HEMCO/CEDS/v2018-08/2014/XYLE-em-anthro_CMIP_CEDS_2014.nc
HEMCO: Opening /fsx/HEMCO/CEDS/v2018-08/2014/CH2O-em-anthro_CMIP_CEDS_2014.nc
HEMCO: Opening /fsx/HEMCO/CEDS/v2018-08/2014/ALD2-em-anthro_CMIP_CEDS_2014.nc
HEMCO: Opening /fsx/HEMCO/CEDS/v2018-08/2014/MEK-em-anthro_CMIP_CEDS_2014.nc
HEMCO: Opening /fsx/HEMCO/CEDS/v2018-08/2014/HCOOH-em-anthro_CMIP_CEDS_2014.nc
HEMCO: Opening /fsx/HEMCO/C2H6_2010/v2017-05/C2H6_global_anth_biof.201001.nc
HEMCO: Opening /fsx/HEMCO/NEI2011/v2017-02-MM/01/NEI11_0.1x0.1_201101_monmean.nc
HEMCO: Opening /fsx/HEMCO/NEI2011/v2017-02-MM/01/NEI11_0.1x0.1_201101_monmean_egu.nc
HEMCO: Opening /fsx/HEMCO/NEI2011/v2017-02-MM/01/NEI11_0.1x0.1_201101_monmean_egupk.nc
HEMCO: Opening /fsx/HEMCO/NEI2011/v2017-02-MM/01/NEI11_0.1x0.1_201101_monmean_oilgas.nc
HEMCO: Opening /fsx/HEMCO/NEI2011/v2017-02-MM/01/NEI11_0.1x0.1_201101_monmean_othpt.nc
HEMCO: Opening /fsx/HEMCO/NEI2011/v2017-02-MM/01/NEI11_0.1x0.1_201101_monmean_ptnonipm.nc
HEMCO: Opening /fsx/HEMCO/IODINE/v2017-09/CH3I_monthly_emissions_Ordonez_2012_COARDS.nc
HEMCO: Opening /fsx/HEMCO/IODINE/v2017-09/CH2I2_monthly_emissions_Ordonez_2012_COARDS.nc
HEMCO: Opening /fsx/HEMCO/IODINE/v2017-09/CH2ICl_monthly_emissions_Ordonez_2012_COARDS.nc
HEMCO: Opening /fsx/HEMCO/IODINE/v2017-09/CH2IBr_monthly_emissions_Ordonez_2012_COARDS.nc
HEMCO: Opening /fsx/HEMCO/CEDS/v2018-08/2014/CO-em-anthro_CMIP_CEDS_2014.nc
HEMCO: Opening /fsx/HEMCO/CEDS/v2018-08/2014/SO2-em-anthro_CMIP_CEDS_2014.nc
HEMCO: Opening /fsx/HEMCO/CEDS/v2018-08/2014/NH3-em-anthro_CMIP_CEDS_2014.nc
HEMCO: Opening /fsx/HEMCO/CEDS/v2018-08/2014/BC-em-anthro_CMIP_CEDS_2014.nc
HEMCO: Opening /fsx/HEMCO/CEDS/v2018-08/2014/OC-em-anthro_CMIP_CEDS_2014.nc
HEMCO: Opening /fsx/HEMCO/CEDS/v2018-08/2014/EOH-em-anthro_CMIP_CEDS_2014.nc
HEMCO: Opening /fsx/HEMCO/CEDS/v2018-08/2014/C2H6-em-anthro_CMIP_CEDS_2014.nc
HEMCO: Opening /fsx/HEMCO/CEDS/v2018-08/2014/C3H8-em-anthro_CMIP_CEDS_2014.nc
HEMCO: Opening /fsx/HEMCO/CEDS/v2018-08/2014/ALK4_butanes-em-anthro_CMIP_CEDS_2014.nc
HEMCO: Opening /fsx/HEMCO/CEDS/v2018-08/2014/ALK4_pentanes-em-anthro_CMIP_CEDS_2014.nc
HEMCO: Opening /fsx/HEMCO/CEDS/v2018-08/2014/ALK4_hexanes-em-anthro_CMIP_CEDS_2014.nc
HEMCO: Opening /fsx/HEMCO/CEDS/v2018-08/2014/PRPE-em-anthro_CMIP_CEDS_2014.nc
HEMCO: Opening /fsx/HEMCO/CEDS/v2018-08/2014/BENZ-em-anthro_CMIP_CEDS_2014.nc
HEMCO: Opening /fsx/HEMCO/CEDS/v2018-08/2014/TOLU-em-anthro_CMIP_CEDS_2014.nc
HEMCO: Opening /fsx/HEMCO/CEDS/v2018-08/2014/XYLE-em-anthro_CMIP_CEDS_2014.nc
HEMCO: Opening /fsx/HEMCO/CEDS/v2018-08/2014/CH2O-em-anthro_CMIP_CEDS_2014.nc
HEMCO: Opening /fsx/HEMCO/CEDS/v2018-08/2014/ALD2-em-anthro_CMIP_CEDS_2014.nc
HEMCO: Opening /fsx/HEMCO/CEDS/v2018-08/2014/MEK-em-anthro_CMIP_CEDS_2014.nc
HEMCO: Opening /fsx/HEMCO/CEDS/v2018-08/2014/HCOOH-em-anthro_CMIP_CEDS_2014.nc
HEMCO: Opening /fsx/HEMCO/CEDS/v2018-08/2014/NO-em-anthro_CMIP_CEDS_2014.nc
HEMCO: Opening /fsx/HEMCO/AEIC/v2015-01/AEIC.47L.gen.1x1.nc
HEMCO: Opening /fsx/HEMCO/ALD2/v2017-03/resp.geos.2x25.nc
HEMCO: Opening /fsx/HEMCO/DMS/v2015-07/DMS_lana.geos.1x1.nc
HEMCO: Opening /fsx/HEMCO/ALD2/v2017-03/ALD2_seawater.geos.2x25.nc
HEMCO: Opening /fsx/HEMCO/DUST_DEAD/v2014-07/dst_tvbds.geos.4x5.nc
HEMCO: Opening /fsx/HEMCO/DUST_DEAD/v2018-04/PM25FINE_ECLIPSE_2015.geos.2x25.nc
HEMCO: Opening /fsx/HEMCO/SOA/v2014-07/NVOC.geos.1x1.nc
HEMCO: Opening /fsx/HEMCO/GFED4/v2015-10/2016/GFED4_gen.025x025.201601.nc
HEMCO: Opening /fsx/HEMCO/UVALBEDO/v2015-03/uvalbedo.geos.2x25.nc
HEMCO: Opening /fsx/HEMCO/GMI/v2015-02/gmi.clim.ACET.geos5.2x25.nc
HEMCO: Opening /fsx/HEMCO/GMI/v2015-02/gmi.clim.ACTA.geos5.2x25.nc
HEMCO: Opening /fsx/HEMCO/GMI/v2015-02/gmi.clim.ALD2.geos5.2x25.nc
HEMCO: Opening /fsx/HEMCO/GMI/v2015-02/gmi.clim.ALK4.geos5.2x25.nc
HEMCO: Opening /fsx/HEMCO/GMI/v2015-02/gmi.clim.C2H6.geos5.2x25.nc
HEMCO: Opening /fsx/HEMCO/GMI/v2015-02/gmi.clim.C3H8.geos5.2x25.nc
HEMCO: Opening /fsx/HEMCO/GMI/v2015-02/gmi.clim.CCl4.geos5.2x25.nc
HEMCO: Opening /fsx/HEMCO/GMI/v2015-02/gmi.clim.CF2Cl2.geos5.2x25.nc
HEMCO: Opening /fsx/HEMCO/GMI/v2015-02/gmi.clim.CF2ClBr.geos5.2x25.nc
HEMCO: Opening /fsx/HEMCO/GMI/v2015-02/gmi.clim.CFC113.geos5.2x25.nc
HEMCO: Opening /fsx/HEMCO/GMI/v2015-02/gmi.clim.CFC114.geos5.2x25.nc
HEMCO: Opening /fsx/HEMCO/GMI/v2015-02/gmi.clim.CFC115.geos5.2x25.nc
HEMCO: Opening /fsx/HEMCO/GMI/v2015-02/gmi.clim.CFCl3.geos5.2x25.nc
HEMCO: Opening /fsx/HEMCO/GMI/v2015-02/gmi.clim.CH2O.geos5.2x25.nc
HEMCO: Opening /fsx/HEMCO/GMI/v2015-02/gmi.clim.CH3CCl3.geos5.2x25.nc
HEMCO: Opening /fsx/HEMCO/GMI/v2015-02/gmi.clim.CH3Cl.geos5.2x25.nc
HEMCO: Opening /fsx/HEMCO/GMI/v2015-02/gmi.clim.CH4.geos5.2x25.nc
HEMCO: Opening /fsx/HEMCO/GMI/v2015-02/gmi.clim.CO.geos5.2x25.nc
HEMCO: Opening /fsx/HEMCO/GMI/v2015-02/gmi.clim.Cl.geos5.2x25.nc
HEMCO: Opening /fsx/HEMCO/GMI/v2015-02/gmi.clim.Cl2.geos5.2x25.nc
HEMCO: Opening /fsx/HEMCO/GMI/v2015-02/gmi.clim.Cl2O2.geos5.2x25.nc
HEMCO: Opening /fsx/HEMCO/GMI/v2015-02/gmi.clim.ClO.geos5.2x25.nc
HEMCO: Opening /fsx/HEMCO/GMI/v2015-02/gmi.clim.EOH.geos5.2x25.nc
HEMCO: Opening /fsx/HEMCO/GMI/v2015-02/gmi.clim.GLYC.geos5.2x25.nc
HEMCO: Opening /fsx/HEMCO/GMI/v2015-02/gmi.clim.GLYX.geos5.2x25.nc
HEMCO: Opening /fsx/HEMCO/GMI/v2015-02/gmi.clim.H2402.geos5.2x25.nc
HEMCO: Opening /fsx/HEMCO/GMI/v2015-02/gmi.clim.H2O.geos5.2x25.nc
HEMCO: Opening /fsx/HEMCO/GMI/v2015-02/gmi.clim.H2O2.geos5.2x25.nc
HEMCO: Opening /fsx/HEMCO/GMI/v2015-02/gmi.clim.HAC.geos5.2x25.nc
HEMCO: Opening /fsx/HEMCO/GMI/v2015-02/gmi.clim.HCFC141b.geos5.2x25.nc
HEMCO: Opening /fsx/HEMCO/GMI/v2015-02/gmi.clim.HCFC142b.geos5.2x25.nc
HEMCO: Opening /fsx/HEMCO/GMI/v2015-02/gmi.clim.HCFC22.geos5.2x25.nc
HEMCO: Opening /fsx/HEMCO/GMI/v2015-02/gmi.clim.HCOOH.geos5.2x25.20170108.nc
HEMCO: Opening /fsx/HEMCO/GMI/v2015-02/gmi.clim.HCl.geos5.2x25.nc
HEMCO: Opening /fsx/HEMCO/GMI/v2015-02/gmi.clim.HNO2.geos5.2x25.nc
HEMCO: Opening /fsx/HEMCO/GMI/v2015-02/gmi.clim.HNO3.geos5.2x25.nc
HEMCO: Opening /fsx/HEMCO/GMI/v2015-02/gmi.clim.HNO4.geos5.2x25.nc
HEMCO: Opening /fsx/HEMCO/GMI/v2015-02/gmi.clim.HOCl.geos5.2x25.nc
HEMCO: Opening /fsx/HEMCO/GMI/v2015-02/gmi.clim.ISN1.geos5.2x25.nc
HEMCO: Opening /fsx/HEMCO/GMI/v2015-02/gmi.clim.ISOP.geos5.2x25.nc
HEMCO: Opening /fsx/HEMCO/GMI/v2015-02/gmi.clim.MACR.geos5.2x25.nc
HEMCO: Opening /fsx/HEMCO/GMI/v2015-02/gmi.clim.MAP.geos5.2x25.nc
HEMCO: Opening /fsx/HEMCO/GMI/v2015-02/gmi.clim.MEK.geos5.2x25.nc
HEMCO: Opening /fsx/HEMCO/GMI/v2015-02/gmi.clim.MGLY.geos5.2x25.nc
HEMCO: Opening /fsx/HEMCO/GMI/v2015-02/gmi.clim.MP.geos5.2x25.nc
HEMCO: Opening /fsx/HEMCO/GMI/v2015-02/gmi.clim.MVK.geos5.2x25.nc
HEMCO: Opening /fsx/HEMCO/GMI/v2015-02/gmi.clim.N2O.geos5.2x25.nc
HEMCO: Opening /fsx/HEMCO/GMI/v2015-02/gmi.clim.N2O5.geos5.2x25.nc
HEMCO: Opening /fsx/HEMCO/GMI/v2015-02/gmi.clim.NO.geos5.2x25.nc
HEMCO: Opening /fsx/HEMCO/GMI/v2015-02/gmi.clim.NO2.geos5.2x25.nc
HEMCO: Opening /fsx/HEMCO/GMI/v2015-02/gmi.clim.NO3.geos5.2x25.nc
HEMCO: Opening /fsx/HEMCO/GMI/v2015-02/gmi.clim.O3.geos5.2x25.nc
HEMCO: Opening /fsx/HEMCO/GMI/v2015-02/gmi.clim.OClO.geos5.2x25.nc
HEMCO: Opening /fsx/HEMCO/GMI/v2015-02/gmi.clim.PAN.geos5.2x25.nc
HEMCO: Opening /fsx/HEMCO/GMI/v2015-02/gmi.clim.NPMN.geos5.2x25.nc
HEMCO: Opening /fsx/HEMCO/GMI/v2015-02/gmi.clim.IPMN.geos5.2x25.nc
HEMCO: Opening /fsx/HEMCO/GMI/v2015-02/gmi.clim.PPN.geos5.2x25.nc
HEMCO: Opening /fsx/HEMCO/GMI/v2015-02/gmi.clim.PRPE.geos5.2x25.nc
HEMCO: Opening /fsx/HEMCO/GMI/v2015-02/gmi.clim.R4N2.geos5.2x25.nc
HEMCO: Opening /fsx/HEMCO/GMI/v2015-02/gmi.clim.RCHO.geos5.2x25.nc
HEMCO: Opening /fsx/HEMCO/GMI/v2015-02/gmi.clim.RIPA.geos5.2x25.nc
HEMCO: Opening /fsx/HEMCO/GMI/v2015-02/gmi.clim.RIPB.geos5.2x25.nc
HEMCO: Opening /fsx/HEMCO/GMI/v2015-02/gmi.clim.RIPD.geos5.2x25.nc
HEMCO: Opening /fsx/HEMCO/GMI/v2015-02/gmi.clim.OH.geos5.2x25.nc
HEMCO: Opening /fsx/HEMCO/NOAA_GMD/v2018-01/monthly.gridded.surface.methane.1979-2020.1x1.nc
HEMCO: Opening /fsx/HEMCO/GEIA/v2014-07/GEIA_monthscal.generic.1x1.nc
HEMCO: Opening /fsx/HEMCO/EMEP/v2015-03/EMEP.Seasonal.geos.1x1.nc
HEMCO: Opening /fsx/HEMCO/BROMINE/v2015-02/BromoCarb_Season.nc
HEMCO: Opening /fsx/HEMCO/EDGARv43/v2016-11/EDGAR_v43.Seasonal.1x1.nc
HEMCO: Opening /fsx/HEMCO/NEI2005/v2014-09/scaling/NEI99.dow.geos.1x1.nc
HEMCO: Opening /fsx/HEMCO/VOLCANO/v2015-02/2009/volc_so2_gen.1x1.47L.200901.nc
HEMCO: Opening /fsx/HEMCO/SOILNOX/v2014-07/soilNOx.fert_res.generic.05x05.nc
 vdinti: pbl height will be limited to bottom           25  model levels. top is
     431.250100000000       hpa
 =================================================
 W R F - G C   T I M E R S
    Domain           1 (Units: s)
 =================================================
  => Coupler Component                       0.054
   -- Physics & Parameterization             0.010
   -- Diagnostics Out                        0.000
  => GEOS-Chem Column                      134.470
  ===> Total Chemistry                     134.525
  => WRF                                    17.288
  ===> Total WRF-GC                        151.813
 max optd  1.9364301E+31
 max taucldi  2.0037105E-07
 max taucldw  1.0953314E-06
 Switching is not necessary as we are already
 in the right domain!
 GIGC_Chunk_Run: Running for in-PET grid #           1
 GIGC_Chunk_Run: Received new grid IM, JM, LM =          15           9
          49
 =================================================
 W R F - G C   T I M E R S
    Domain           1 (Units: s)
 =================================================
  => Coupler Component                       0.080
   -- Physics & Parameterization             0.018
   -- Diagnostics Out                        0.000
  => GEOS-Chem Column                      135.844
  ===> Total Chemistry                     135.924
  => WRF                                    56.425
  ===> Total WRF-GC                        192.349
 max optd  1.9364301E+31
 max taucldi  4.8768360E-02
 max taucldw  1.9442357E-06
 Switching is not necessary as we are already
 in the right domain!
 GIGC_Chunk_Run: Running for in-PET grid #           1
 GIGC_Chunk_Run: Received new grid IM, JM, LM =          15           9
          49
 =================================================
 W R F - G C   T I M E R S
    Domain           1 (Units: s)
 =================================================
  => Coupler Component                       0.111
   -- Physics & Parameterization             0.030
   -- Diagnostics Out                        0.000
  => GEOS-Chem Column                      137.056
  ===> Total Chemistry                     137.167
  => WRF                                    76.913
  ===> Total WRF-GC                        214.080
 max optd  1.9364301E+31
 max taucldi  8.4293276E-02
 max taucldw  2.4469707E-06
 Switching is not necessary as we are already
 in the right domain!
 GIGC_Chunk_Run: Running for in-PET grid #           1
 GIGC_Chunk_Run: Received new grid IM, JM, LM =          15           9
          49
 =================================================
 W R F - G C   T I M E R S
    Domain           1 (Units: s)
 =================================================
  => Coupler Component                       0.137
   -- Physics & Parameterization             0.038
   -- Diagnostics Out                        0.000
  => GEOS-Chem Column                      138.244
  ===> Total Chemistry                     138.381
  => WRF                                    95.783
  ===> Total WRF-GC                        234.163
 max optd  1.9364301E+31
 max taucldi  0.1405584    
 max taucldw  3.0466172E-06
 Switching is not necessary as we are already
 in the right domain!
 GIGC_Chunk_Run: Running for in-PET grid #           1
 GIGC_Chunk_Run: Received new grid IM, JM, LM =          15           9
          49
 =================================================
 W R F - G C   T I M E R S
    Domain           1 (Units: s)
 =================================================
  => Coupler Component                       0.170
   -- Physics & Parameterization             0.048
   -- Diagnostics Out                        0.000
  => GEOS-Chem Column                      139.425
  ===> Total Chemistry                     139.596
  => WRF                                   114.237
  ===> Total WRF-GC                        253.833
 max optd  1.9364301E+31
 max taucldi  0.1667835    
 max taucldw  3.8542398E-06
 Switching is not necessary as we are already
 in the right domain!
 GIGC_Chunk_Run: Running for in-PET grid #           1
 GIGC_Chunk_Run: Received new grid IM, JM, LM =          15           9
          49
 =================================================
 W R F - G C   T I M E R S
    Domain           1 (Units: s)
 =================================================
  => Coupler Component                       0.205
   -- Physics & Parameterization             0.056
   -- Diagnostics Out                        0.000
  => GEOS-Chem Column                      140.582
  ===> Total Chemistry                     140.788
  => WRF                                   132.566
  ===> Total WRF-GC                        273.354
 max optd  1.9364301E+31
 max taucldi  0.2170127    
 max taucldw  4.6534333E-06
 Switching is not necessary as we are already
 in the right domain!
 GIGC_Chunk_Run: Running for in-PET grid #           1
 GIGC_Chunk_Run: Received new grid IM, JM, LM =          15           9
          49
 =================================================
 W R F - G C   T I M E R S
    Domain           1 (Units: s)
 =================================================
  => Coupler Component                       0.241
   -- Physics & Parameterization             0.065
   -- Diagnostics Out                        0.000
  => GEOS-Chem Column                      141.762
  ===> Total Chemistry                     142.003
  => WRF                                   150.913
  ===> Total WRF-GC                        292.916
 max optd  1.9364301E+31
 max taucldi  0.3101669    
 max taucldw  5.4402649E-06
 Switching is not necessary as we are already
 in the right domain!
 GIGC_Chunk_Run: Running for in-PET grid #           1
 GIGC_Chunk_Run: Received new grid IM, JM, LM =          15           9
          49
 =================================================
 W R F - G C   T I M E R S
    Domain           1 (Units: s)
 =================================================
  => Coupler Component                       0.273
   -- Physics & Parameterization             0.075
   -- Diagnostics Out                        0.000
  => GEOS-Chem Column                      142.935
  ===> Total Chemistry                     143.208
  => WRF                                   169.163
  ===> Total WRF-GC                        312.371
 max optd  1.9364301E+31
 max taucldi  0.3729074    
 max taucldw  6.1968994E-06
 Switching is not necessary as we are already
 in the right domain!
 GIGC_Chunk_Run: Running for in-PET grid #           1
 GIGC_Chunk_Run: Received new grid IM, JM, LM =          15           9
          49
 =================================================
 W R F - G C   T I M E R S
    Domain           1 (Units: s)
 =================================================
  => Coupler Component                       0.311
   -- Physics & Parameterization             0.084
   -- Diagnostics Out                        0.000
  => GEOS-Chem Column                      144.110
  ===> Total Chemistry                     144.421
  => WRF                                   187.428
  ===> Total WRF-GC                        331.849
 max optd  1.9364301E+31
 max taucldi  0.4207164    
 max taucldw  6.9300581E-06
 Switching is not necessary as we are already
 in the right domain!
 GIGC_Chunk_Run: Running for in-PET grid #           1
 GIGC_Chunk_Run: Received new grid IM, JM, LM =          15           9
          49
 =================================================
 W R F - G C   T I M E R S
    Domain           1 (Units: s)
 =================================================
  => Coupler Component                       0.342
   -- Physics & Parameterization             0.093
   -- Diagnostics Out                        0.000
  => GEOS-Chem Column                      145.146
  ===> Total Chemistry                     145.488
  => WRF                                   205.742
  ===> Total WRF-GC                        351.230
 max optd  1.9364301E+31
 max taucldi  0.4677387    
 max taucldw  8.5983211E-06
 Switching is not necessary as we are already
 in the right domain!
 GIGC_Chunk_Run: Running for in-PET grid #           1
 GIGC_Chunk_Run: Received new grid IM, JM, LM =          15           9
          49
 =================================================
 W R F - G C   T I M E R S
    Domain           1 (Units: s)
 =================================================
  => Coupler Component                       0.373
   -- Physics & Parameterization             0.102
   -- Diagnostics Out                        0.000
  => GEOS-Chem Column                      146.188
  ===> Total Chemistry                     146.561
  => WRF                                   224.121
  ===> Total WRF-GC                        370.682
 max optd  1.9364301E+31
 max taucldi  0.5006505    
 max taucldw  1.0610308E-05
 Switching is not necessary as we are already
 in the right domain!
 GIGC_Chunk_Run: Running for in-PET grid #           1
 GIGC_Chunk_Run: Received new grid IM, JM, LM =          15           9
          49
 =================================================
 W R F - G C   T I M E R S
    Domain           1 (Units: s)
 =================================================
  => Coupler Component                       0.405
   -- Physics & Parameterization             0.111
   -- Diagnostics Out                        0.000
  => GEOS-Chem Column                      147.232
  ===> Total Chemistry                     147.637
  => WRF                                   242.382
  ===> Total WRF-GC                        390.019
 HOURLY EMISSIONS UPDATE TIME     3600.0       0.0
mediation_integrate: med_read_wrf_chem_emissions: Read emissions for time 2018-01-01_01:00:00
 max optd  1.9364301E+31
 max taucldi  0.5265493    
 max taucldw  1.3049519E-05
 Switching is not necessary as we are already
 in the right domain!
 GIGC_Chunk_Run: Running for in-PET grid #           1
 GIGC_Chunk_Run: Received new grid IM, JM, LM =          15           9
          49
 =================================================
 W R F - G C   T I M E R S
    Domain           1 (Units: s)
 =================================================
  => Coupler Component                       0.439
   -- Physics & Parameterization             0.120
   -- Diagnostics Out                        0.000
  => GEOS-Chem Column                      148.280
  ===> Total Chemistry                     148.719
  => WRF                                   260.713
  ===> Total WRF-GC                        409.432
 max optd  1.9364301E+31
 max taucldi  0.5664065    
 max taucldw  1.5903895E-05
 Switching is not necessary as we are already
 in the right domain!
 GIGC_Chunk_Run: Running for in-PET grid #           1
 GIGC_Chunk_Run: Received new grid IM, JM, LM =          15           9
          49
 =================================================
 W R F - G C   T I M E R S
    Domain           1 (Units: s)
 =================================================
  => Coupler Component                       0.472
   -- Physics & Parameterization             0.129
   -- Diagnostics Out                        0.000
  => GEOS-Chem Column                      149.331
  ===> Total Chemistry                     149.803
  => WRF                                   279.033
  ===> Total WRF-GC                        428.836
 max optd  1.9364301E+31
 max taucldi  0.6049117    
 max taucldw  1.9135676E-05
 Switching is not necessary as we are already
 in the right domain!
 GIGC_Chunk_Run: Running for in-PET grid #           1
 GIGC_Chunk_Run: Received new grid IM, JM, LM =          15           9
          49
 =================================================
 W R F - G C   T I M E R S
    Domain           1 (Units: s)
 =================================================
  => Coupler Component                       0.508
   -- Physics & Parameterization             0.139
   -- Diagnostics Out                        0.000
  => GEOS-Chem Column                      150.373
  ===> Total Chemistry                     150.882
  => WRF                                   297.224
  ===> Total WRF-GC                        448.106
 max optd  1.9364301E+31
 max taucldi  0.6265734    
 max taucldw  2.2668930E-05
 Switching is not necessary as we are already
 in the right domain!
 GIGC_Chunk_Run: Running for in-PET grid #           1
 GIGC_Chunk_Run: Received new grid IM, JM, LM =          15           9
          49
 =================================================
 W R F - G C   T I M E R S
    Domain           1 (Units: s)
 =================================================
  => Coupler Component                       0.543
   -- Physics & Parameterization             0.148
   -- Diagnostics Out                        0.000
  => GEOS-Chem Column                      151.414
  ===> Total Chemistry                     151.957
  => WRF                                   315.519
  ===> Total WRF-GC                        467.476
 max optd  1.9364301E+31
 max taucldi  0.6519954    
 max taucldw  2.6277545E-05
 Switching is not necessary as we are already
 in the right domain!
 GIGC_Chunk_Run: Running for in-PET grid #           1
 GIGC_Chunk_Run: Received new grid IM, JM, LM =          15           9
          49
 =================================================
 W R F - G C   T I M E R S
    Domain           1 (Units: s)
 =================================================
  => Coupler Component                       0.581
   -- Physics & Parameterization             0.157
   -- Diagnostics Out                        0.000
  => GEOS-Chem Column                      152.464
  ===> Total Chemistry                     153.044
  => WRF                                   333.764
  ===> Total WRF-GC                        486.809
 max optd  1.9364301E+31
 max taucldi  0.6628550    
 max taucldw  2.9634832E-05
 Switching is not necessary as we are already
 in the right domain!
 GIGC_Chunk_Run: Running for in-PET grid #           1
 GIGC_Chunk_Run: Received new grid IM, JM, LM =          15           9
          49
 =================================================
 W R F - G C   T I M E R S
    Domain           1 (Units: s)
 =================================================
  => Coupler Component                       0.618
   -- Physics & Parameterization             0.166
   -- Diagnostics Out                        0.000
  => GEOS-Chem Column                      153.511
  ===> Total Chemistry                     154.128
  => WRF                                   351.958
  ===> Total WRF-GC                        506.087
 max optd  1.9364301E+31
 max taucldi  0.6096324    
 max taucldw  3.2482389E-05
 Switching is not necessary as we are already
 in the right domain!
 GIGC_Chunk_Run: Running for in-PET grid #           1
 GIGC_Chunk_Run: Received new grid IM, JM, LM =          15           9
          49
 =================================================
 W R F - G C   T I M E R S
    Domain           1 (Units: s)
 =================================================
  => Coupler Component                       0.657
   -- Physics & Parameterization             0.175
   -- Diagnostics Out                        0.000
  => GEOS-Chem Column                      154.560
  ===> Total Chemistry                     155.216
  => WRF                                   370.214
  ===> Total WRF-GC                        525.430
 max optd  1.9364301E+31
 max taucldi  0.5971164    
 max taucldw  3.4604265E-05
 Switching is not necessary as we are already
 in the right domain!
 GIGC_Chunk_Run: Running for in-PET grid #           1
 GIGC_Chunk_Run: Received new grid IM, JM, LM =          15           9
          49
 =================================================
 W R F - G C   T I M E R S
    Domain           1 (Units: s)
 =================================================
  => Coupler Component                       0.697
   -- Physics & Parameterization             0.184
   -- Diagnostics Out                        0.000
  => GEOS-Chem Column                      155.606
  ===> Total Chemistry                     156.303
  => WRF                                   388.580
  ===> Total WRF-GC                        544.883
 max optd  1.9364301E+31
 max taucldi  0.5861760    
 max taucldw  3.5614397E-05
 Switching is not necessary as we are already
 in the right domain!
 GIGC_Chunk_Run: Running for in-PET grid #           1
 GIGC_Chunk_Run: Received new grid IM, JM, LM =          15           9
          49
 =================================================
 W R F - G C   T I M E R S
    Domain           1 (Units: s)
 =================================================
  => Coupler Component                       0.731
   -- Physics & Parameterization             0.192
   -- Diagnostics Out                        0.000
  => GEOS-Chem Column                      156.673
  ===> Total Chemistry                     157.405
  => WRF                                   406.695
  ===> Total WRF-GC                        564.100
 max optd  1.9364301E+31
 max taucldi  0.5779174    
 max taucldw  3.5192294E-05
 Switching is not necessary as we are already
 in the right domain!
 GIGC_Chunk_Run: Running for in-PET grid #           1
 GIGC_Chunk_Run: Received new grid IM, JM, LM =          15           9
          49
 =================================================
 W R F - G C   T I M E R S
    Domain           1 (Units: s)
 =================================================
  => Coupler Component                       0.767
   -- Physics & Parameterization             0.201
   -- Diagnostics Out                        0.000
  => GEOS-Chem Column                      157.737
  ===> Total Chemistry                     158.505
  => WRF                                   424.859
  ===> Total WRF-GC                        583.364
 max optd  1.9364301E+31
 max taucldi  0.6011810    
 max taucldw  3.4203622E-05
 Switching is not necessary as we are already
 in the right domain!
 GIGC_Chunk_Run: Running for in-PET grid #           1
 GIGC_Chunk_Run: Received new grid IM, JM, LM =          15           9
          49
 =================================================
 W R F - G C   T I M E R S
    Domain           1 (Units: s)
 =================================================
  => Coupler Component                       0.804
   -- Physics & Parameterization             0.210
   -- Diagnostics Out                        0.000
  => GEOS-Chem Column                      158.805
  ===> Total Chemistry                     159.608
  => WRF                                   443.138
  ===> Total WRF-GC                        602.746
 max optd  1.9364301E+31
 max taucldi  0.5949886    
 max taucldw  3.5618017E-05
 Switching is not necessary as we are already
 in the right domain!
 GIGC_Chunk_Run: Running for in-PET grid #           1
 GIGC_Chunk_Run: Received new grid IM, JM, LM =          15           9
          49
 =================================================
 W R F - G C   T I M E R S
    Domain           1 (Units: s)
 =================================================
  => Coupler Component                       0.837
   -- Physics & Parameterization             0.219
   -- Diagnostics Out                        0.000
  => GEOS-Chem Column                      159.875
  ===> Total Chemistry                     160.712
  => WRF                                   461.308
  ===> Total WRF-GC                        622.021
 HOURLY EMISSIONS UPDATE TIME     7200.0       0.0
mediation_integrate: med_read_wrf_chem_emissions: Read emissions for time 2018-01-01_02:00:00
 max optd  1.9364301E+31
 max taucldi  0.5946632    
 max taucldw  3.5312001E-05
 Switching is not necessary as we are already
 in the right domain!
 GIGC_Chunk_Run: Running for in-PET grid #           1
 GIGC_Chunk_Run: Received new grid IM, JM, LM =          15           9
          49
 =================================================
 W R F - G C   T I M E R S
    Domain           1 (Units: s)
 =================================================
  => Coupler Component                       0.875
   -- Physics & Parameterization             0.228
   -- Diagnostics Out                        0.000
  => GEOS-Chem Column                      160.925
  ===> Total Chemistry                     161.800
  => WRF                                   479.492
  ===> Total WRF-GC                        641.292
 max optd  1.9364301E+31
 max taucldi  0.6058118    
 max taucldw  3.3983164E-05
 Switching is not necessary as we are already
 in the right domain!
 GIGC_Chunk_Run: Running for in-PET grid #           1
 GIGC_Chunk_Run: Received new grid IM, JM, LM =          15           9
          49
 =================================================
 W R F - G C   T I M E R S
    Domain           1 (Units: s)
 =================================================
  => Coupler Component                       0.910
   -- Physics & Parameterization             0.237
   -- Diagnostics Out                        0.000
  => GEOS-Chem Column                      161.993
  ===> Total Chemistry                     162.903
  => WRF                                   497.724
  ===> Total WRF-GC                        660.627
 max optd  1.9364301E+31
 max taucldi  0.6176947    
 max taucldw  3.5498044E-05
 Switching is not necessary as we are already
 in the right domain!
 GIGC_Chunk_Run: Running for in-PET grid #           1
 GIGC_Chunk_Run: Received new grid IM, JM, LM =          15           9
          49
 =================================================
 W R F - G C   T I M E R S
    Domain           1 (Units: s)
 =================================================
  => Coupler Component                       0.945
   -- Physics & Parameterization             0.247
   -- Diagnostics Out                        0.000
  => GEOS-Chem Column                      163.062
  ===> Total Chemistry                     164.007
  => WRF                                   515.829
  ===> Total WRF-GC                        679.836
 max optd  1.9364301E+31
 max taucldi  0.6310142    
 max taucldw  3.5170204E-05
 Switching is not necessary as we are already
 in the right domain!
 GIGC_Chunk_Run: Running for in-PET grid #           1
 GIGC_Chunk_Run: Received new grid IM, JM, LM =          15           9
          49
 =================================================
 W R F - G C   T I M E R S
    Domain           1 (Units: s)
 =================================================
  => Coupler Component                       0.982
   -- Physics & Parameterization             0.256
   -- Diagnostics Out                        0.000
  => GEOS-Chem Column                      164.132
  ===> Total Chemistry                     165.114
  => WRF                                   533.932
  ===> Total WRF-GC                        699.046
 max optd  1.9364301E+31
 max taucldi  0.6820898    
 max taucldw  3.4551998E-05
 Switching is not necessary as we are already
 in the right domain!
 GIGC_Chunk_Run: Running for in-PET grid #           1
 GIGC_Chunk_Run: Received new grid IM, JM, LM =          15           9
          49
 =================================================
 W R F - G C   T I M E R S
    Domain           1 (Units: s)
 =================================================
  => Coupler Component                       1.015
   -- Physics & Parameterization             0.265
   -- Diagnostics Out                        0.000
  => GEOS-Chem Column                      165.206
  ===> Total Chemistry                     166.222
  => WRF                                   552.053
  ===> Total WRF-GC                        718.275
 max optd  1.9364301E+31
 max taucldi  0.7397819    
 max taucldw  3.5163768E-05
 Switching is not necessary as we are already
 in the right domain!
 GIGC_Chunk_Run: Running for in-PET grid #           1
 GIGC_Chunk_Run: Received new grid IM, JM, LM =          15           9
          49
 =================================================
 W R F - G C   T I M E R S
    Domain           1 (Units: s)
 =================================================
  => Coupler Component                       1.052
   -- Physics & Parameterization             0.274
   -- Diagnostics Out                        0.000
  => GEOS-Chem Column                      166.270
  ===> Total Chemistry                     167.322
  => WRF                                   570.175
  ===> Total WRF-GC                        737.497
 max optd  1.9364301E+31
 max taucldi  0.7719176    
 max taucldw  3.3956891E-05
 Switching is not necessary as we are already
 in the right domain!
 GIGC_Chunk_Run: Running for in-PET grid #           1
 GIGC_Chunk_Run: Received new grid IM, JM, LM =          15           9
          49
 =================================================
 W R F - G C   T I M E R S
    Domain           1 (Units: s)
 =================================================
  => Coupler Component                       1.086
   -- Physics & Parameterization             0.283
   -- Diagnostics Out                        0.000
  => GEOS-Chem Column                      167.343
  ===> Total Chemistry                     168.429
  => WRF                                   588.305
  ===> Total WRF-GC                        756.735
 max optd  1.9364301E+31
 max taucldi  0.7901121    
 max taucldw  3.5553519E-05
 Switching is not necessary as we are already
 in the right domain!
 GIGC_Chunk_Run: Running for in-PET grid #           1
 GIGC_Chunk_Run: Received new grid IM, JM, LM =          15           9
          49
 =================================================
 W R F - G C   T I M E R S
    Domain           1 (Units: s)
 =================================================
  => Coupler Component                       1.123
   -- Physics & Parameterization             0.292
   -- Diagnostics Out                        0.000
  => GEOS-Chem Column                      168.398
  ===> Total Chemistry                     169.522
  => WRF                                   606.379
  ===> Total WRF-GC                        775.901
 max optd  1.9364301E+31
 max taucldi  0.8268034    
 max taucldw  3.5772879E-05
 Switching is not necessary as we are already
 in the right domain!
 GIGC_Chunk_Run: Running for in-PET grid #           1
 GIGC_Chunk_Run: Received new grid IM, JM, LM =          15           9
          49
 =================================================
 W R F - G C   T I M E R S
    Domain           1 (Units: s)
 =================================================
  => Coupler Component                       1.157
   -- Physics & Parameterization             0.301
   -- Diagnostics Out                        0.000
  => GEOS-Chem Column                      169.475
  ===> Total Chemistry                     170.632
  => WRF                                   624.484
  ===> Total WRF-GC                        795.116
 max optd  1.9364301E+31
 max taucldi  0.8355987    
 max taucldw  3.4004752E-05
 Switching is not necessary as we are already
 in the right domain!
 GIGC_Chunk_Run: Running for in-PET grid #           1
 GIGC_Chunk_Run: Received new grid IM, JM, LM =          15           9
          49
 =================================================
 W R F - G C   T I M E R S
    Domain           1 (Units: s)
 =================================================
  => Coupler Component                       1.192
   -- Physics & Parameterization             0.311
   -- Diagnostics Out                        0.000
  => GEOS-Chem Column                      170.543
  ===> Total Chemistry                     171.734
  => WRF                                   642.609
  ===> Total WRF-GC                        814.343
 max optd  1.9364301E+31
 max taucldi  0.8461112    
 max taucldw  3.5395416E-05
 Switching is not necessary as we are already
 in the right domain!
 GIGC_Chunk_Run: Running for in-PET grid #           1
 GIGC_Chunk_Run: Received new grid IM, JM, LM =          15           9
          49
 =================================================
 W R F - G C   T I M E R S
    Domain           1 (Units: s)
 =================================================
  => Coupler Component                       1.227
   -- Physics & Parameterization             0.320
   -- Diagnostics Out                        0.000
  => GEOS-Chem Column                      171.614
  ===> Total Chemistry                     172.841
  => WRF                                   660.662
  ===> Total WRF-GC                        833.503
 max optd  1.9364301E+31
 max taucldi  0.8628806    
 max taucldw  3.5426398E-05
 Switching is not necessary as we are already
 in the right domain!
 GIGC_Chunk_Run: Running for in-PET grid #           1
 GIGC_Chunk_Run: Received new grid IM, JM, LM =          15           9
          49
 =================================================
 W R F - G C   T I M E R S
    Domain           1 (Units: s)
 =================================================
  => Coupler Component                       1.261
   -- Physics & Parameterization             0.329
   -- Diagnostics Out                        0.000
  => GEOS-Chem Column                      172.681
  ===> Total Chemistry                     173.941
  => WRF                                   678.726
  ===> Total WRF-GC                        852.667
 HOURLY EMISSIONS UPDATE TIME    10800.0       0.0
mediation_integrate: med_read_wrf_chem_emissions: Read emissions for time 2018-01-01_03:00:00
 max optd  1.9364301E+31
 max taucldi  0.8692240    
 max taucldw  3.3950448E-05
 Switching is not necessary as we are already
 in the right domain!
 GIGC_Chunk_Run: Running for in-PET grid #           1
 GIGC_Chunk_Run: Received new grid IM, JM, LM =          15           9
          49
 =================================================
 W R F - G C   T I M E R S
    Domain           1 (Units: s)
 =================================================
  => Coupler Component                       1.295
   -- Physics & Parameterization             0.338
   -- Diagnostics Out                        0.000
  => GEOS-Chem Column                      173.754
  ===> Total Chemistry                     175.048
  => WRF                                   696.850
  ===> Total WRF-GC                        871.898
 max optd  1.9364301E+31
 max taucldi  0.8747000    
 max taucldw  3.3018245E-05
 Switching is not necessary as we are already
 in the right domain!
 GIGC_Chunk_Run: Running for in-PET grid #           1
 GIGC_Chunk_Run: Received new grid IM, JM, LM =          15           9
          49
 =================================================
 W R F - G C   T I M E R S
    Domain           1 (Units: s)
 =================================================
  => Coupler Component                       1.328
   -- Physics & Parameterization             0.347
   -- Diagnostics Out                        0.000
  => GEOS-Chem Column                      174.823
  ===> Total Chemistry                     176.151
  => WRF                                   714.915
  ===> Total WRF-GC                        891.066
 max optd  1.9364301E+31
 max taucldi  0.8854606    
 max taucldw  3.3140484E-05
 Switching is not necessary as we are already
 in the right domain!
 GIGC_Chunk_Run: Running for in-PET grid #           1
 GIGC_Chunk_Run: Received new grid IM, JM, LM =          15           9
          49
 =================================================
 W R F - G C   T I M E R S
    Domain           1 (Units: s)
 =================================================
  => Coupler Component                       1.364
   -- Physics & Parameterization             0.356
   -- Diagnostics Out                        0.000
  => GEOS-Chem Column                      175.893
  ===> Total Chemistry                     177.257
  => WRF                                   733.024
  ===> Total WRF-GC                        910.281
 max optd  1.9364301E+31
 max taucldi  0.8961325    
 max taucldw  3.3705412E-05
 Switching is not necessary as we are already
 in the right domain!
 GIGC_Chunk_Run: Running for in-PET grid #           1
 GIGC_Chunk_Run: Received new grid IM, JM, LM =          15           9
          49
 =================================================
 W R F - G C   T I M E R S
    Domain           1 (Units: s)
 =================================================
  => Coupler Component                       1.397
   -- Physics & Parameterization             0.366
   -- Diagnostics Out                        0.000
  => GEOS-Chem Column                      176.964
  ===> Total Chemistry                     178.361
  => WRF                                   751.094
  ===> Total WRF-GC                        929.455
 max optd  1.9364301E+31
 max taucldi  0.8969184    
 max taucldw  3.4904395E-05
 Switching is not necessary as we are already
 in the right domain!
 GIGC_Chunk_Run: Running for in-PET grid #           1
 GIGC_Chunk_Run: Received new grid IM, JM, LM =          15           9
          49
 =================================================
 W R F - G C   T I M E R S
    Domain           1 (Units: s)
 =================================================
  => Coupler Component                       1.431
   -- Physics & Parameterization             0.375
   -- Diagnostics Out                        0.000
  => GEOS-Chem Column                      178.051
  ===> Total Chemistry                     179.481
  => WRF                                   769.143
  ===> Total WRF-GC                        948.624
 max optd  1.9364301E+31
 max taucldi  0.8997754    
 max taucldw  3.6133904E-05
 Switching is not necessary as we are already
 in the right domain!
 GIGC_Chunk_Run: Running for in-PET grid #           1
 GIGC_Chunk_Run: Received new grid IM, JM, LM =          15           9
          49
 =================================================
 W R F - G C   T I M E R S
    Domain           1 (Units: s)
 =================================================
  => Coupler Component                       1.462
   -- Physics & Parameterization             0.383
   -- Diagnostics Out                        0.000
  => GEOS-Chem Column                      179.102
  ===> Total Chemistry                     180.564
  => WRF                                   787.488
  ===> Total WRF-GC                        968.052
 max optd  1.9364301E+31
 max taucldi  0.9059344    
 max taucldw  3.7345850E-05
 Switching is not necessary as we are already
 in the right domain!
 GIGC_Chunk_Run: Running for in-PET grid #           1
 GIGC_Chunk_Run: Received new grid IM, JM, LM =          15           9
          49
 =================================================
 W R F - G C   T I M E R S
    Domain           1 (Units: s)
 =================================================
  => Coupler Component                       1.497
   -- Physics & Parameterization             0.392
   -- Diagnostics Out                        0.000
  => GEOS-Chem Column                      180.173
  ===> Total Chemistry                     181.669
  => WRF                                   805.643
  ===> Total WRF-GC                        987.312
 max optd  1.9364301E+31
 max taucldi  0.9046408    
 max taucldw  3.8468334E-05
 Switching is not necessary as we are already
 in the right domain!
 GIGC_Chunk_Run: Running for in-PET grid #           1
 GIGC_Chunk_Run: Received new grid IM, JM, LM =          15           9
          49
 =================================================
 W R F - G C   T I M E R S
    Domain           1 (Units: s)
 =================================================
  => Coupler Component                       1.528
   -- Physics & Parameterization             0.402
   -- Diagnostics Out                        0.000
  => GEOS-Chem Column                      181.231
  ===> Total Chemistry                     182.759
  => WRF                                   823.691
  ===> Total WRF-GC                       1006.450
 max optd  1.9364301E+31
 max taucldi  0.9071471    
 max taucldw  3.9486520E-05
 Switching is not necessary as we are already
 in the right domain!
 GIGC_Chunk_Run: Running for in-PET grid #           1
 GIGC_Chunk_Run: Received new grid IM, JM, LM =          15           9
          49
 =================================================
 W R F - G C   T I M E R S
    Domain           1 (Units: s)
 =================================================
  => Coupler Component                       1.563
   -- Physics & Parameterization             0.411
   -- Diagnostics Out                        0.000
  => GEOS-Chem Column                      182.315
  ===> Total Chemistry                     183.877
  => WRF                                   841.886
  ===> Total WRF-GC                       1025.763
 max optd  1.9364301E+31
 max taucldi  0.9130750    
 max taucldw  4.0348637E-05
 Switching is not necessary as we are already
 in the right domain!
 GIGC_Chunk_Run: Running for in-PET grid #           1
 GIGC_Chunk_Run: Received new grid IM, JM, LM =          15           9
          49
 =================================================
 W R F - G C   T I M E R S
    Domain           1 (Units: s)
 =================================================
  => Coupler Component                       1.595
   -- Physics & Parameterization             0.420
   -- Diagnostics Out                        0.000
  => GEOS-Chem Column                      183.390
  ===> Total Chemistry                     184.985
  => WRF                                   859.993
  ===> Total WRF-GC                       1044.978
 max optd  1.9364301E+31
 max taucldi  0.9309216    
 max taucldw  4.1022053E-05
 Switching is not necessary as we are already
 in the right domain!
 GIGC_Chunk_Run: Running for in-PET grid #           1
 GIGC_Chunk_Run: Received new grid IM, JM, LM =          15           9
          49
 =================================================
 W R F - G C   T I M E R S
    Domain           1 (Units: s)
 =================================================
  => Coupler Component                       1.629
   -- Physics & Parameterization             0.429
   -- Diagnostics Out                        0.000
  => GEOS-Chem Column                      184.478
  ===> Total Chemistry                     186.107
  => WRF                                   878.077
  ===> Total WRF-GC                       1064.184
 max optd  1.9364301E+31
 max taucldi  0.9505292    
 max taucldw  4.1498377E-05
 Switching is not necessary as we are already
 in the right domain!
 GIGC_Chunk_Run: Running for in-PET grid #           1
 GIGC_Chunk_Run: Received new grid IM, JM, LM =          15           9
          49
 =================================================
 W R F - G C   T I M E R S
    Domain           1 (Units: s)
 =================================================
  => Coupler Component                       1.663
   -- Physics & Parameterization             0.438
   -- Diagnostics Out                        0.000
  => GEOS-Chem Column                      185.573
  ===> Total Chemistry                     187.236
  => WRF                                   896.196
  ===> Total WRF-GC                       1083.432
 HOURLY EMISSIONS UPDATE TIME    14400.0       0.0
mediation_integrate: med_read_wrf_chem_emissions: Read emissions for time 2018-01-01_04:00:00
 max optd  1.9364301E+31
 max taucldi  0.9727606    
 max taucldw  4.2086042E-05
 Switching is not necessary as we are already
 in the right domain!
 GIGC_Chunk_Run: Running for in-PET grid #           1
 GIGC_Chunk_Run: Received new grid IM, JM, LM =          15           9
          49
 =================================================
 W R F - G C   T I M E R S
    Domain           1 (Units: s)
 =================================================
  => Coupler Component                       1.696
   -- Physics & Parameterization             0.447
   -- Diagnostics Out                        0.000
  => GEOS-Chem Column                      186.664
  ===> Total Chemistry                     188.360
  => WRF                                   914.305
  ===> Total WRF-GC                       1102.665
 max optd  1.9364301E+31
 max taucldi  0.9914660    
 max taucldw  4.2920681E-05
 Switching is not necessary as we are already
 in the right domain!
 GIGC_Chunk_Run: Running for in-PET grid #           1
 GIGC_Chunk_Run: Received new grid IM, JM, LM =          15           9
          49
 =================================================
 W R F - G C   T I M E R S
    Domain           1 (Units: s)
 =================================================
  => Coupler Component                       1.730
   -- Physics & Parameterization             0.456
   -- Diagnostics Out                        0.000
  => GEOS-Chem Column                      187.755
  ===> Total Chemistry                     189.484
  => WRF                                   932.405
  ===> Total WRF-GC                       1121.889
 max optd  1.9364301E+31
 max taucldi   1.011943    
 max taucldw  4.3336324E-05
 Switching is not necessary as we are already
 in the right domain!
 GIGC_Chunk_Run: Running for in-PET grid #           1
 GIGC_Chunk_Run: Received new grid IM, JM, LM =          15           9
          49
 =================================================
 W R F - G C   T I M E R S
    Domain           1 (Units: s)
 =================================================
  => Coupler Component                       1.764
   -- Physics & Parameterization             0.465
   -- Diagnostics Out                        0.000
  => GEOS-Chem Column                      188.850
  ===> Total Chemistry                     190.615
  => WRF                                   950.598
  ===> Total WRF-GC                       1141.212
 max optd  1.9364301E+31
 max taucldi   1.028085    
 max taucldw  4.3211701E-05
 Switching is not necessary as we are already
 in the right domain!
 GIGC_Chunk_Run: Running for in-PET grid #           1
 GIGC_Chunk_Run: Received new grid IM, JM, LM =          15           9
          49
 =================================================
 W R F - G C   T I M E R S
    Domain           1 (Units: s)
 =================================================
  => Coupler Component                       1.797
   -- Physics & Parameterization             0.474
   -- Diagnostics Out                        0.000
  => GEOS-Chem Column                      189.944
  ===> Total Chemistry                     191.741
  => WRF                                   968.669
  ===> Total WRF-GC                       1160.410
 max optd  1.9364301E+31
 max taucldi   1.047406    
 max taucldw  4.2498436E-05
 Switching is not necessary as we are already
 in the right domain!
 GIGC_Chunk_Run: Running for in-PET grid #           1
 GIGC_Chunk_Run: Received new grid IM, JM, LM =          15           9
          49
 =================================================
 W R F - G C   T I M E R S
    Domain           1 (Units: s)
 =================================================
  => Coupler Component                       1.833
   -- Physics & Parameterization             0.483
   -- Diagnostics Out                        0.000
  => GEOS-Chem Column                      191.040
  ===> Total Chemistry                     192.873
  => WRF                                   986.798
  ===> Total WRF-GC                       1179.671
 max optd  1.9364301E+31
 max taucldi   1.062428    
 max taucldw  4.2703879E-05
 Switching is not necessary as we are already
 in the right domain!
 GIGC_Chunk_Run: Running for in-PET grid #           1
 GIGC_Chunk_Run: Received new grid IM, JM, LM =          15           9
          49
 =================================================
 W R F - G C   T I M E R S
    Domain           1 (Units: s)
 =================================================
  => Coupler Component                       1.865
   -- Physics & Parameterization             0.492
   -- Diagnostics Out                        0.000
  => GEOS-Chem Column                      192.128
  ===> Total Chemistry                     193.993
  => WRF                                  1004.896
  ===> Total WRF-GC                       1198.888
 max optd  1.9364301E+31
 max taucldi   1.082229    
 max taucldw  4.2268384E-05
 Switching is not necessary as we are already
 in the right domain!
 GIGC_Chunk_Run: Running for in-PET grid #           1
 GIGC_Chunk_Run: Received new grid IM, JM, LM =          15           9
          49
 =================================================
 W R F - G C   T I M E R S
    Domain           1 (Units: s)
 =================================================
  => Coupler Component                       1.899
   -- Physics & Parameterization             0.501
   -- Diagnostics Out                        0.000
  => GEOS-Chem Column                      193.216
  ===> Total Chemistry                     195.115
  => WRF                                  1023.062
  ===> Total WRF-GC                       1218.176
 max optd  1.9364301E+31
 max taucldi   1.091025    
 max taucldw  4.2268028E-05
 Switching is not necessary as we are already
 in the right domain!
 GIGC_Chunk_Run: Running for in-PET grid #           1
 GIGC_Chunk_Run: Received new grid IM, JM, LM =          15           9
          49
 =================================================
 W R F - G C   T I M E R S
    Domain           1 (Units: s)
 =================================================
  => Coupler Component                       1.933
   -- Physics & Parameterization             0.509
   -- Diagnostics Out                        0.000
  => GEOS-Chem Column                      194.298
  ===> Total Chemistry                     196.231
  => WRF                                  1041.141
  ===> Total WRF-GC                       1237.372
 max optd  1.9364301E+31
 max taucldi   1.107611    
 max taucldw  4.2519769E-05
 Switching is not necessary as we are already
 in the right domain!
 GIGC_Chunk_Run: Running for in-PET grid #           1
 GIGC_Chunk_Run: Received new grid IM, JM, LM =          15           9
          49
 =================================================
 W R F - G C   T I M E R S
    Domain           1 (Units: s)
 =================================================
  => Coupler Component                       1.965
   -- Physics & Parameterization             0.518
   -- Diagnostics Out                        0.000
  => GEOS-Chem Column                      195.383
  ===> Total Chemistry                     197.349
  => WRF                                  1059.252
  ===> Total WRF-GC                       1256.601
 max optd  1.9364301E+31
 max taucldi   1.117147    
 max taucldw  4.2233096E-05
 Switching is not necessary as we are already
 in the right domain!
 GIGC_Chunk_Run: Running for in-PET grid #           1
 GIGC_Chunk_Run: Received new grid IM, JM, LM =          15           9
          49
 =================================================
 W R F - G C   T I M E R S
    Domain           1 (Units: s)
 =================================================
  => Coupler Component                       1.997
   -- Physics & Parameterization             0.527
   -- Diagnostics Out                        0.000
  => GEOS-Chem Column                      196.478
  ===> Total Chemistry                     198.475
  => WRF                                  1077.360
  ===> Total WRF-GC                       1275.835
 max optd  1.9364301E+31
 max taucldi   1.116288    
 max taucldw  4.1898573E-05
 Switching is not necessary as we are already
 in the right domain!
 GIGC_Chunk_Run: Running for in-PET grid #           1
 GIGC_Chunk_Run: Received new grid IM, JM, LM =          15           9
          49
 =================================================
 W R F - G C   T I M E R S
    Domain           1 (Units: s)
 =================================================
  => Coupler Component                       2.030
   -- Physics & Parameterization             0.537
   -- Diagnostics Out                        0.000
  => GEOS-Chem Column                      197.561
  ===> Total Chemistry                     199.591
  => WRF                                  1095.422
  ===> Total WRF-GC                       1295.013
 max optd  1.9364301E+31
 max taucldi   1.118257    
 max taucldw  4.2479329E-05
 Switching is not necessary as we are already
 in the right domain!
 GIGC_Chunk_Run: Running for in-PET grid #           1
 GIGC_Chunk_Run: Received new grid IM, JM, LM =          15           9
          49
 =================================================
 W R F - G C   T I M E R S
    Domain           1 (Units: s)
 =================================================
  => Coupler Component                       2.062
   -- Physics & Parameterization             0.546
   -- Diagnostics Out                        0.000
  => GEOS-Chem Column                      198.634
  ===> Total Chemistry                     200.696
  => WRF                                  1113.446
  ===> Total WRF-GC                       1314.143
 HOURLY EMISSIONS UPDATE TIME    18000.0       0.0
mediation_integrate: med_read_wrf_chem_emissions: Read emissions for time 2018-01-01_05:00:00
 max optd  1.9364301E+31
 max taucldi   1.116112    
 max taucldw  4.2745942E-05
 Switching is not necessary as we are already
 in the right domain!
 GIGC_Chunk_Run: Running for in-PET grid #           1
 GIGC_Chunk_Run: Received new grid IM, JM, LM =          15           9
          49
 =================================================
 W R F - G C   T I M E R S
    Domain           1 (Units: s)
 =================================================
  => Coupler Component                       2.095
   -- Physics & Parameterization             0.554
   -- Diagnostics Out                        0.000
  => GEOS-Chem Column                      199.725
  ===> Total Chemistry                     201.820
  => WRF                                  1131.608
  ===> Total WRF-GC                       1333.428
 max optd  1.9364301E+31
 max taucldi   1.113619    
 max taucldw  4.2678093E-05
 Switching is not necessary as we are already
 in the right domain!
 GIGC_Chunk_Run: Running for in-PET grid #           1
 GIGC_Chunk_Run: Received new grid IM, JM, LM =          15           9
          49
 =================================================
 W R F - G C   T I M E R S
    Domain           1 (Units: s)
 =================================================
  => Coupler Component                       2.129
   -- Physics & Parameterization             0.564
   -- Diagnostics Out                        0.000
  => GEOS-Chem Column                      200.807
  ===> Total Chemistry                     202.935
  => WRF                                  1149.679
  ===> Total WRF-GC                       1352.615
 max optd  1.9364301E+31
 max taucldi   1.119520    
 max taucldw  4.2262251E-05
 Switching is not necessary as we are already
 in the right domain!
 GIGC_Chunk_Run: Running for in-PET grid #           1
 GIGC_Chunk_Run: Received new grid IM, JM, LM =          15           9
          49
 =================================================
 W R F - G C   T I M E R S
    Domain           1 (Units: s)
 =================================================
  => Coupler Component                       2.163
   -- Physics & Parameterization             0.573
   -- Diagnostics Out                        0.000
  => GEOS-Chem Column                      201.879
  ===> Total Chemistry                     204.042
  => WRF                                  1167.756
  ===> Total WRF-GC                       1371.798
 max optd  1.9364301E+31
 max taucldi   1.132827    
 max taucldw  4.1522377E-05
 Switching is not necessary as we are already
 in the right domain!
 GIGC_Chunk_Run: Running for in-PET grid #           1
 GIGC_Chunk_Run: Received new grid IM, JM, LM =          15           9
          49
 =================================================
 W R F - G C   T I M E R S
    Domain           1 (Units: s)
 =================================================
  => Coupler Component                       2.197
   -- Physics & Parameterization             0.581
   -- Diagnostics Out                        0.000
  => GEOS-Chem Column                      202.968
  ===> Total Chemistry                     205.165
  => WRF                                  1185.885
  ===> Total WRF-GC                       1391.050
 max optd  1.9364301E+31
 max taucldi   1.148560    
 max taucldw  4.1144776E-05
 Switching is not necessary as we are already
 in the right domain!
 GIGC_Chunk_Run: Running for in-PET grid #           1
 GIGC_Chunk_Run: Received new grid IM, JM, LM =          15           9
          49
 =================================================
 W R F - G C   T I M E R S
    Domain           1 (Units: s)
 =================================================
  => Coupler Component                       2.229
   -- Physics & Parameterization             0.591
   -- Diagnostics Out                        0.000
  => GEOS-Chem Column                      204.048
  ===> Total Chemistry                     206.277
  => WRF                                  1204.036
  ===> Total WRF-GC                       1410.313
 max optd  1.9364301E+31
 max taucldi   1.162830    
 max taucldw  4.2049865E-05
 Switching is not necessary as we are already
 in the right domain!
 GIGC_Chunk_Run: Running for in-PET grid #           1
 GIGC_Chunk_Run: Received new grid IM, JM, LM =          15           9
          49
 =================================================
 W R F - G C   T I M E R S
    Domain           1 (Units: s)
 =================================================
  => Coupler Component                       2.263
   -- Physics & Parameterization             0.600
   -- Diagnostics Out                        0.000
  => GEOS-Chem Column                      205.133
  ===> Total Chemistry                     207.396
  => WRF                                  1222.101
  ===> Total WRF-GC                       1429.497
 max optd  1.9364301E+31
 max taucldi   1.164820    
 max taucldw  4.3224099E-05
 Switching is not necessary as we are already
 in the right domain!
 GIGC_Chunk_Run: Running for in-PET grid #           1
 GIGC_Chunk_Run: Received new grid IM, JM, LM =          15           9
          49
 =================================================
 W R F - G C   T I M E R S
    Domain           1 (Units: s)
 =================================================
  => Coupler Component                       2.303
   -- Physics & Parameterization             0.609
   -- Diagnostics Out                        0.000
  => GEOS-Chem Column                      206.202
  ===> Total Chemistry                     208.505
  => WRF                                  1240.263
  ===> Total WRF-GC                       1448.768
 max optd  1.9364301E+31
 max taucldi   1.165373    
 max taucldw  4.4074346E-05
 Switching is not necessary as we are already
 in the right domain!
 GIGC_Chunk_Run: Running for in-PET grid #           1
 GIGC_Chunk_Run: Received new grid IM, JM, LM =          15           9
          49
 =================================================
 W R F - G C   T I M E R S
    Domain           1 (Units: s)
 =================================================
  => Coupler Component                       2.336
   -- Physics & Parameterization             0.618
   -- Diagnostics Out                        0.000
  => GEOS-Chem Column                      207.277
  ===> Total Chemistry                     209.613
  => WRF                                  1258.363
  ===> Total WRF-GC                       1467.976
 max optd  1.9364301E+31
 max taucldi   1.167823    
 max taucldw  4.4551005E-05
 Switching is not necessary as we are already
 in the right domain!
 GIGC_Chunk_Run: Running for in-PET grid #           1
 GIGC_Chunk_Run: Received new grid IM, JM, LM =          15           9
          49
 =================================================
 W R F - G C   T I M E R S
    Domain           1 (Units: s)
 =================================================
  => Coupler Component                       2.370
   -- Physics & Parameterization             0.627
   -- Diagnostics Out                        0.000
  => GEOS-Chem Column                      208.359
  ===> Total Chemistry                     210.729
  => WRF                                  1276.513
  ===> Total WRF-GC                       1487.242
 max optd  1.9364301E+31
 max taucldi   1.169237    
 max taucldw  4.4631604E-05
 Switching is not necessary as we are already
 in the right domain!
 GIGC_Chunk_Run: Running for in-PET grid #           1
 GIGC_Chunk_Run: Received new grid IM, JM, LM =          15           9
          49
 =================================================
 W R F - G C   T I M E R S
    Domain           1 (Units: s)
 =================================================
  => Coupler Component                       2.403
   -- Physics & Parameterization             0.635
   -- Diagnostics Out                        0.000
  => GEOS-Chem Column                      209.433
  ===> Total Chemistry                     211.837
  => WRF                                  1294.896
  ===> Total WRF-GC                       1506.733
 max optd  1.9364301E+31
 max taucldi   1.169633    
 max taucldw  4.4332850E-05
 Switching is not necessary as we are already
 in the right domain!
 GIGC_Chunk_Run: Running for in-PET grid #           1
 GIGC_Chunk_Run: Received new grid IM, JM, LM =          15           9
          49
 =================================================
 W R F - G C   T I M E R S
    Domain           1 (Units: s)
 =================================================
  => Coupler Component                       2.436
   -- Physics & Parameterization             0.645
   -- Diagnostics Out                        0.000
  => GEOS-Chem Column                      210.510
  ===> Total Chemistry                     212.946
  => WRF                                  1313.013
  ===> Total WRF-GC                       1525.959
 max optd  1.9364301E+31
 max taucldi   1.169716    
 max taucldw  4.3750086E-05
 Switching is not necessary as we are already
 in the right domain!
 GIGC_Chunk_Run: Running for in-PET grid #           1
 GIGC_Chunk_Run: Received new grid IM, JM, LM =          15           9
          49
 =================================================
 W R F - G C   T I M E R S
    Domain           1 (Units: s)
 =================================================
  => Coupler Component                       2.468
   -- Physics & Parameterization             0.653
   -- Diagnostics Out                        0.000
  => GEOS-Chem Column                      211.579
  ===> Total Chemistry                     214.047
  => WRF                                  1331.122
  ===> Total WRF-GC                       1545.169
 HOURLY EMISSIONS UPDATE TIME    21600.0       0.0
mediation_integrate: med_read_wrf_chem_emissions: Read emissions for time 2018-01-01_06:00:00
 max optd  1.9364301E+31
 max taucldi   1.134202    
 max taucldw  4.4077791E-05
 Switching is not necessary as we are already
 in the right domain!
 GIGC_Chunk_Run: Running for in-PET grid #           1
 GIGC_Chunk_Run: Received new grid IM, JM, LM =          15           9
          49
 =================================================
 W R F - G C   T I M E R S
    Domain           1 (Units: s)
 =================================================
  => Coupler Component                       2.502
   -- Physics & Parameterization             0.662
   -- Diagnostics Out                        0.000
  => GEOS-Chem Column                      212.654
  ===> Total Chemistry                     215.157
  => WRF                                  1789.790
  ===> Total WRF-GC                       2004.947
 max optd  1.9364301E+31
 max taucldi   1.083474    
 max taucldw  4.4580469E-05
 Switching is not necessary as we are already
 in the right domain!
 GIGC_Chunk_Run: Running for in-PET grid #           1
 GIGC_Chunk_Run: Received new grid IM, JM, LM =          15           9
          49
 =================================================
 W R F - G C   T I M E R S
    Domain           1 (Units: s)
 =================================================
  => Coupler Component                       2.537
   -- Physics & Parameterization             0.672
   -- Diagnostics Out                        0.000
  => GEOS-Chem Column                      213.724
  ===> Total Chemistry                     216.261
  => WRF                                  1807.916
  ===> Total WRF-GC                       2024.177
 max optd  1.9364301E+31
 max taucldi   1.043327    
 max taucldw  4.4690099E-05
 Switching is not necessary as we are already
 in the right domain!
 GIGC_Chunk_Run: Running for in-PET grid #           1
 GIGC_Chunk_Run: Received new grid IM, JM, LM =          15           9
          49
 =================================================
 W R F - G C   T I M E R S
    Domain           1 (Units: s)
 =================================================
  => Coupler Component                       2.572
   -- Physics & Parameterization             0.680
   -- Diagnostics Out                        0.000
  => GEOS-Chem Column                      214.795
  ===> Total Chemistry                     217.367
  => WRF                                  1826.173
  ===> Total WRF-GC                       2043.540
 max optd  1.9364301E+31
 max taucldi   1.009801    
 max taucldw  4.4568216E-05
 Switching is not necessary as we are already
 in the right domain!
 GIGC_Chunk_Run: Running for in-PET grid #           1
 GIGC_Chunk_Run: Received new grid IM, JM, LM =          15           9
          49
 =================================================
 W R F - G C   T I M E R S
    Domain           1 (Units: s)
 =================================================
  => Coupler Component                       2.606
[...]
  => GEOS-Chem Column                      262.877
  ===> Total Chemistry                     267.068
  => WRF                                  2643.797
  ===> Total WRF-GC                       2910.865
 HOURLY EMISSIONS UPDATE TIME    36000.0       0.0
mediation_integrate: med_read_wrf_chem_emissions: Read emissions for time 2018-01-01_10:00:00
 max optd  1.9364301E+31
 max taucldi  0.5142432    
 max taucldw  8.6846063E-05
 Switching is not necessary as we are already
 in the right domain!
 GIGC_Chunk_Run: Running for in-PET grid #           1
 GIGC_Chunk_Run: Received new grid IM, JM, LM =          15           9
          49
 =================================================
 W R F - G C   T I M E R S
    Domain           1 (Units: s)
 =================================================
  => Coupler Component                       4.227
   -- Physics & Parameterization             1.093
   -- Diagnostics Out                        0.000
  => GEOS-Chem Column                      263.955
  ===> Total Chemistry                     268.182
  => WRF                                  2662.004
  ===> Total WRF-GC                       2930.186
 max optd  1.9364301E+31
 max taucldi  0.5144601    
 max taucldw  8.7908957E-05
 Switching is not necessary as we are already
 in the right domain!
 GIGC_Chunk_Run: Running for in-PET grid #           1
 GIGC_Chunk_Run: Received new grid IM, JM, LM =          15           9
          49
 =================================================
 W R F - G C   T I M E R S
    Domain           1 (Units: s)
 =================================================
  => Coupler Component                       4.261
   -- Physics & Parameterization             1.101
   -- Diagnostics Out                        0.000
  => GEOS-Chem Column                      265.028
  ===> Total Chemistry                     269.290
  => WRF                                  2680.138
  ===> Total WRF-GC                       2949.427
 max optd  1.9364301E+31
 max taucldi  0.5153228    
 max taucldw  8.8680928E-05
 Switching is not necessary as we are already
 in the right domain!
 GIGC_Chunk_Run: Running for in-PET grid #           1
 GIGC_Chunk_Run: Received new grid IM, JM, LM =          15           9
          49
 =================================================
 W R F - G C   T I M E R S
    Domain           1 (Units: s)
 =================================================
  => Coupler Component                       4.297
   -- Physics & Parameterization             1.110
   -- Diagnostics Out                        0.000
  => GEOS-Chem Column                      266.100
  ===> Total Chemistry                     270.397
  => WRF                                  2698.266
  ===> Total WRF-GC                       2968.664
 max optd  1.9364301E+31
 max taucldi  0.5088978    
 max taucldw  8.9178429E-05
 Switching is not necessary as we are already
 in the right domain!
 GIGC_Chunk_Run: Running for in-PET grid #           1
 GIGC_Chunk_Run: Received new grid IM, JM, LM =          15           9
          49
 =================================================
 W R F - G C   T I M E R S
    Domain           1 (Units: s)
 =================================================
  => Coupler Component                       4.331
   -- Physics & Parameterization             1.119
   -- Diagnostics Out                        0.000
  => GEOS-Chem Column                      267.179
  ===> Total Chemistry                     271.510
  => WRF                                  2716.493
  ===> Total WRF-GC                       2988.003
 max optd  1.9364301E+31
 max taucldi  0.4850071    
 max taucldw  8.9447283E-05
 Switching is not necessary as we are already
 in the right domain!
 GIGC_Chunk_Run: Running for in-PET grid #           1
 GIGC_Chunk_Run: Received new grid IM, JM, LM =          15           9
          49
 =================================================
 W R F - G C   T I M E R S
    Domain           1 (Units: s)
 =================================================
  => Coupler Component                       4.365
   -- Physics & Parameterization             1.128
   -- Diagnostics Out                        0.000
  => GEOS-Chem Column                      268.258
  ===> Total Chemistry                     272.624
  => WRF                                  2734.656
  ===> Total WRF-GC                       3007.280
 max optd  1.9364301E+31
 max taucldi  0.4865404    
 max taucldw  8.9533351E-05
 Switching is not necessary as we are already
 in the right domain!
 GIGC_Chunk_Run: Running for in-PET grid #           1
 GIGC_Chunk_Run: Received new grid IM, JM, LM =          15           9
          49
 =================================================
 W R F - G C   T I M E R S
    Domain           1 (Units: s)
 =================================================
  => Coupler Component                       4.398
   -- Physics & Parameterization             1.137
   -- Diagnostics Out                        0.000
  => GEOS-Chem Column                      269.331
  ===> Total Chemistry                     273.729
  => WRF                                  2752.743
  ===> Total WRF-GC                       3026.472
 max optd  1.9364301E+31
 max taucldi  0.4766187    
 max taucldw  8.9491594E-05
 Switching is not necessary as we are already
 in the right domain!
 GIGC_Chunk_Run: Running for in-PET grid #           1
 GIGC_Chunk_Run: Received new grid IM, JM, LM =          15           9
          49
 =================================================
 W R F - G C   T I M E R S
    Domain           1 (Units: s)
 =================================================
  => Coupler Component                       4.432
   -- Physics & Parameterization             1.146
   -- Diagnostics Out                        0.000
  => GEOS-Chem Column                      270.417
  ===> Total Chemistry                     274.849
  => WRF                                  2770.916
  ===> Total WRF-GC                       3045.765
 max optd  1.9364301E+31
 max taucldi  0.4888698    
 max taucldw  8.9379762E-05
 Switching is not necessary as we are already
 in the right domain!
 GIGC_Chunk_Run: Running for in-PET grid #           1
 GIGC_Chunk_Run: Received new grid IM, JM, LM =          15           9
          49
 =================================================
 W R F - G C   T I M E R S
    Domain           1 (Units: s)
 =================================================
  => Coupler Component                       4.467
   -- Physics & Parameterization             1.155
   -- Diagnostics Out                        0.000
  => GEOS-Chem Column                      271.482
  ===> Total Chemistry                     275.949
  => WRF                                  2789.041
  ===> Total WRF-GC                       3064.990
 max optd  1.9364301E+31
 max taucldi  0.4937914    
 max taucldw  8.9248926E-05
 Switching is not necessary as we are already
 in the right domain!
 GIGC_Chunk_Run: Running for in-PET grid #           1
 GIGC_Chunk_Run: Received new grid IM, JM, LM =          15           9
          49
 =================================================
 W R F - G C   T I M E R S
    Domain           1 (Units: s)
 =================================================
  => Coupler Component                       4.503
   -- Physics & Parameterization             1.163
   -- Diagnostics Out                        0.000
  => GEOS-Chem Column                      272.561
  ===> Total Chemistry                     277.065
  => WRF                                  2807.177
  ===> Total WRF-GC                       3084.242
 max optd  1.9364301E+31
 max taucldi  0.5186871    
 max taucldw  8.9124085E-05
 Switching is not necessary as we are already
 in the right domain!
 GIGC_Chunk_Run: Running for in-PET grid #           1
 GIGC_Chunk_Run: Received new grid IM, JM, LM =          15           9
          49
 =================================================
 W R F - G C   T I M E R S
    Domain           1 (Units: s)
 =================================================
  => Coupler Component                       4.538
   -- Physics & Parameterization             1.172
   -- Diagnostics Out                        0.000
  => GEOS-Chem Column                      273.639
  ===> Total Chemistry                     278.176
  => WRF                                  2825.370
  ===> Total WRF-GC                       3103.546
 max optd  1.9364301E+31
 max taucldi  0.5493525    
 max taucldw  8.9012094E-05
 Switching is not necessary as we are already
 in the right domain!
 GIGC_Chunk_Run: Running for in-PET grid #           1
 GIGC_Chunk_Run: Received new grid IM, JM, LM =          15           9
          49
 =================================================
 W R F - G C   T I M E R S
    Domain           1 (Units: s)
 =================================================
  => Coupler Component                       4.573
   -- Physics & Parameterization             1.181
   -- Diagnostics Out                        0.000
  => GEOS-Chem Column                      274.721
  ===> Total Chemistry                     279.294
  => WRF                                  2843.497
  ===> Total WRF-GC                       3122.792
 max optd  1.9364301E+31
 max taucldi  0.5576710    
 max taucldw  8.8929643E-05
 Switching is not necessary as we are already
 in the right domain!
 GIGC_Chunk_Run: Running for in-PET grid #           1
 GIGC_Chunk_Run: Received new grid IM, JM, LM =          15           9
          49
 =================================================
 W R F - G C   T I M E R S
    Domain           1 (Units: s)
 =================================================
  => Coupler Component                       4.605
   -- Physics & Parameterization             1.190
   -- Diagnostics Out                        0.000
  => GEOS-Chem Column                      275.807
  ===> Total Chemistry                     280.412
  => WRF                                  2861.689
  ===> Total WRF-GC                       3142.101
 HOURLY EMISSIONS UPDATE TIME    39600.0       0.0
mediation_integrate: med_read_wrf_chem_emissions: Read emissions for time 2018-01-01_11:00:00
 max optd  1.9364301E+31
 max taucldi  0.5744857    
 max taucldw  8.8887973E-05
 Switching is not necessary as we are already
 in the right domain!
 GIGC_Chunk_Run: Running for in-PET grid #           1
 GIGC_Chunk_Run: Received new grid IM, JM, LM =          15           9
          49
 =================================================
 W R F - G C   T I M E R S
    Domain           1 (Units: s)
 =================================================
  => Coupler Component                       4.639
   -- Physics & Parameterization             1.199
   -- Diagnostics Out                        0.000
  => GEOS-Chem Column                      276.891
  ===> Total Chemistry                     281.530
  => WRF                                  2879.849
  ===> Total WRF-GC                       3161.380
 max optd  1.9364301E+31
 max taucldi  0.5812774    
 max taucldw  8.8921392E-05
 Switching is not necessary as we are already
 in the right domain!
 GIGC_Chunk_Run: Running for in-PET grid #           1
 GIGC_Chunk_Run: Received new grid IM, JM, LM =          15           9
          49
 =================================================
 W R F - G C   T I M E R S
    Domain           1 (Units: s)
 =================================================
  => Coupler Component                       4.672
   -- Physics & Parameterization             1.208
   -- Diagnostics Out                        0.000
  => GEOS-Chem Column                      277.964
  ===> Total Chemistry                     282.637
  => WRF                                  2897.943
  ===> Total WRF-GC                       3180.579
 max optd  1.9364301E+31
 max taucldi  0.5756140    
 max taucldw  8.9020235E-05
 Switching is not necessary as we are already
 in the right domain!
 GIGC_Chunk_Run: Running for in-PET grid #           1
 GIGC_Chunk_Run: Received new grid IM, JM, LM =          15           9
          49
 =================================================
 W R F - G C   T I M E R S
    Domain           1 (Units: s)
 =================================================
  => Coupler Component                       4.706
   -- Physics & Parameterization             1.217
   -- Diagnostics Out                        0.000
  => GEOS-Chem Column                      279.043
  ===> Total Chemistry                     283.749
  => WRF                                  2916.171
  ===> Total WRF-GC                       3199.920
 max optd  1.9364301E+31
 max taucldi  0.5844444    
 max taucldw  8.9164794E-05
 Switching is not necessary as we are already
 in the right domain!
 GIGC_Chunk_Run: Running for in-PET grid #           1
 GIGC_Chunk_Run: Received new grid IM, JM, LM =          15           9
          49
 =================================================
 W R F - G C   T I M E R S
    Domain           1 (Units: s)
 =================================================
  => Coupler Component                       4.741
   -- Physics & Parameterization             1.226
   -- Diagnostics Out                        0.000
  => GEOS-Chem Column                      280.133
  ===> Total Chemistry                     284.873
  => WRF                                  2934.441
  ===> Total WRF-GC                       3219.314
 max optd  1.9364301E+31
 max taucldi  0.5995431    
 max taucldw  8.9342073E-05
 Switching is not necessary as we are already
 in the right domain!
 GIGC_Chunk_Run: Running for in-PET grid #           1
 GIGC_Chunk_Run: Received new grid IM, JM, LM =          15           9
          49
 =================================================
 W R F - G C   T I M E R S
    Domain           1 (Units: s)
 =================================================
  => Coupler Component                       4.774
   -- Physics & Parameterization             1.235
   -- Diagnostics Out                        0.000
  => GEOS-Chem Column                      281.223
  ===> Total Chemistry                     285.998
  => WRF                                  2952.831
  ===> Total WRF-GC                       3238.828
 max optd  1.9364301E+31
 max taucldi  0.6165386    
 max taucldw  8.9538175E-05
 Switching is not necessary as we are already
 in the right domain!
 GIGC_Chunk_Run: Running for in-PET grid #           1
 GIGC_Chunk_Run: Received new grid IM, JM, LM =          15           9
          49
 =================================================
 W R F - G C   T I M E R S
    Domain           1 (Units: s)
 =================================================
  => Coupler Component                       4.809
   -- Physics & Parameterization             1.244
   -- Diagnostics Out                        0.000
  => GEOS-Chem Column                      282.304
  ===> Total Chemistry                     287.113
  => WRF                                  2971.194
  ===> Total WRF-GC                       3258.307
 max optd  1.9364301E+31
 max taucldi  0.6348079    
 max taucldw  8.9746645E-05
 Switching is not necessary as we are already
 in the right domain!
 GIGC_Chunk_Run: Running for in-PET grid #           1
 GIGC_Chunk_Run: Received new grid IM, JM, LM =          15           9
          49
 =================================================
 W R F - G C   T I M E R S
    Domain           1 (Units: s)
 =================================================
  => Coupler Component                       4.844
   -- Physics & Parameterization             1.253
   -- Diagnostics Out                        0.000
  => GEOS-Chem Column                      283.386
  ===> Total Chemistry                     288.230
  => WRF                                  2989.717
  ===> Total WRF-GC                       3277.947
 max optd  1.9364301E+31
 max taucldi  0.6480247    
 max taucldw  8.9965237E-05
 Switching is not necessary as we are already
 in the right domain!
 GIGC_Chunk_Run: Running for in-PET grid #           1
 GIGC_Chunk_Run: Received new grid IM, JM, LM =          15           9
          49
 =================================================
 W R F - G C   T I M E R S
    Domain           1 (Units: s)
 =================================================
  => Coupler Component                       4.879
   -- Physics & Parameterization             1.261
   -- Diagnostics Out                        0.000
  => GEOS-Chem Column                      284.455
  ===> Total Chemistry                     289.334
  => WRF                                  3008.266
  ===> Total WRF-GC                       3297.600
 max optd  1.9364301E+31
 max taucldi  0.6542485    
 max taucldw  9.0189184E-05
 Switching is not necessary as we are already
 in the right domain!
 GIGC_Chunk_Run: Running for in-PET grid #           1
 GIGC_Chunk_Run: Received new grid IM, JM, LM =          15           9
          49
 =================================================
 W R F - G C   T I M E R S
    Domain           1 (Units: s)
 =================================================
  => Coupler Component                       4.914
   -- Physics & Parameterization             1.270
   -- Diagnostics Out                        0.000
  => GEOS-Chem Column                      285.543
  ===> Total Chemistry                     290.457
  => WRF                                  3026.941
  ===> Total WRF-GC                       3317.398
 max optd  1.9364301E+31
 max taucldi  0.6575546    
 max taucldw  9.0387970E-05
 Switching is not necessary as we are already
 in the right domain!
 GIGC_Chunk_Run: Running for in-PET grid #           1
 GIGC_Chunk_Run: Received new grid IM, JM, LM =          15           9
          49
 =================================================
 W R F - G C   T I M E R S
    Domain           1 (Units: s)
 =================================================
  => Coupler Component                       4.951
   -- Physics & Parameterization             1.279
   -- Diagnostics Out                        0.000
  => GEOS-Chem Column                      286.608
  ===> Total Chemistry                     291.560
  => WRF                                  3045.805
  ===> Total WRF-GC                       3337.365
 max optd  1.9364301E+31
 max taucldi  0.6614076    
 max taucldw  9.0529044E-05
 Switching is not necessary as we are already
 in the right domain!
 GIGC_Chunk_Run: Running for in-PET grid #           1
 GIGC_Chunk_Run: Received new grid IM, JM, LM =          15           9
          49
 =================================================
 W R F - G C   T I M E R S
    Domain           1 (Units: s)
 =================================================
  => Coupler Component                       4.989
   -- Physics & Parameterization             1.288
   -- Diagnostics Out                        0.000
  => GEOS-Chem Column                      287.678
  ===> Total Chemistry                     292.667
  => WRF                                  3064.616
  ===> Total WRF-GC                       3357.283
 max optd  1.9364301E+31
 max taucldi  0.6629565    
 max taucldw  9.0609290E-05
 Switching is not necessary as we are already
 in the right domain!
 GIGC_Chunk_Run: Running for in-PET grid #           1
 GIGC_Chunk_Run: Received new grid IM, JM, LM =          15           9
          49
 =================================================
 W R F - G C   T I M E R S
    Domain           1 (Units: s)
 =================================================
  => Coupler Component                       5.024
   -- Physics & Parameterization             1.297
   -- Diagnostics Out                        0.000
  => GEOS-Chem Column                      288.752
  ===> Total Chemistry                     293.776
  => WRF                                  3083.343
  ===> Total WRF-GC                       3377.118
d01 2018-01-01_12:00:00 wrf: SUCCESS COMPLETE WRF
