taskid: 4485 hostname: ip-172-31-15-81
Quilting with   1 groups of   0 I/O tasks.
 Ntasks in X           64 , ntasks in Y           72
--- WARNING: traj_opt is zero, but num_traj is not zero; setting num_traj to zero.
--- NOTE: sst_update is 0, setting io_form_auxinput4 = 0 and auxinput4_interval = 0 for all domains
--- NOTE: grid_fdda is 0 for domain      1, setting gfdda interval and ending time to 0 for that domain.
--- NOTE: both grid_sfdda and pxlsm_soil_nudge are 0 for domain      1, setting sgfdda interval and ending time to 0 for that domain.
--- NOTE: obs_nudge_opt is 0 for domain      1, setting obs nudging interval and ending time to 0 for that domain.
--- NOTE: bl_pbl_physics /= 4, implies mfshconv must be 0, resetting
Need MYNN PBL for icloud_bl = 1, resetting to 0
*************************************
No physics suite selected.
Physics options will be used directly from the namelist.
*************************************
--- NOTE: RRTMG radiation is in use, setting:  levsiz=59, alevsiz=12, no_src_types=6
--- NOTE: num_soil_layers has been set to      4
WRF V3.9.1.1 MODEL
 *************************************
 Parent domain
 ids,ide,jds,jde            1         950           1         650
 ims,ime,jms,jme           69          97         625         647
 ips,ipe,jps,jpe           76          90         632         640
 *************************************
DYNAMICS OPTION: Eulerian Mass Coordinate
   alloc_space_field: domain            1 ,              203623800  bytes allocated
  med_initialdata_input: calling input_input
Max map factor in domain 1 =  1.40. Scale the dt in the model accordingly.
INPUT LandUse = "USGS"
 LANDUSE TYPE = "USGS" FOUND          33  CATEGORIES           2  SEASONS WATER CATEGORY =           16  SNOW CATEGORY =           24
INITIALIZE THREE Noah LSM RELATED TABLES
*****************************************************************
  __          _______  ______       _____  _____ _    _ _____
  \ \        / /  __ \|  ____|     / ____|/ ____| |  | |  __ \
   \ \  /\  / /| |__) | |__ ______| |  __| |    | |__| | |__) |
    \ \/  \/ / |  _  /|  __|______| | |_ | |    |  __  |  ___/
     \  /\  /  | | \ \| |         | |__| | |____| |  | | |
      \/  \/   |_|  \_\_|          \_____|\_____|_|  |_|_|
*****************************************************************
         WRF-GC MODEL, VERSION 1811.11 - WRF BINDINGS
 For errors, suggestions & feedback email linhaipeng@pku.edu.cn
*****************************************************************
    This is domain            1
 ### GIGC_Stateful_Mod: Root CPU, after READ_INPUT_FILE
  Linoz Data:  O3 climatology :                  z*=10, 12, ..., 58                             2.700E-08 1.083E-05
  Linoz Data:  Temperature climatology :         z*=10, 12, ..., 58                             1.859E+02 2.904E+02
  Linoz Data:  Column O3 above box climalology : z*=10, 12, ..., 58                             7.538E-02 3.770E+02
  Linoz Data:  P-L O3 climatology (mr/s):        z*=10, 12, ..., 58                            -1.590E-10 2.835E-11
  Linoz Data:  d(P-L)/dO3 (1/s) :                z*=10, 12, ..., 58                            -8.386E-04 7.556E-09
  Linoz Data:  d(P-L)/dT (mr/K) :                z*=10, 12, ..., 58                            -5.742E-12 4.615E-14
  Linoz Data:  d(P-L)/d(column O3) (mr/DU) :     z*=10, 12, ..., 58                            -1.921E-12 5.038E-10
 ### GIGC_Stateful_Mod: Root CPU, after LINOZ_READ
 %%%%%%%%% GIGC IN-PET GRID SWITCHING HACKS %%%%%%%%%
     (Not very) Proudly brought to you by hplin      
 Some debug information:
 ID:           1
 IM, JM, LM:          15           9          49  will be set as PAR
 Allocs: CMN T GC F
 RC at entry-point:           0
 %%%%%%%%%%%%%%%%%%%%%%%%%%%%%%%%%%%%%%%%%%%%%%%%%%%%
 No need to switch HcoState for ID           1
 Exit RC:            0
 %%%%%%%%%    FINISHED GIGC_Switch_Dims    %%%%%%%%%
 GIGC_Chunk_Init: Received new grid IM, JM, LM =          15           9
          49
     ### GIGC_INIT_SIMULATION: after Input_Opt% setups
     ### GIGC_INIT_SIMULATION: after GC_Init_All
     ### GIGC_INIT_SIMULATION: after GC_Init_Extra
     ### GIGC_INIT_SIMULATION: after INIT_FJX
 # GIGC_CHUNK_MOD: after SV save, ID =           1
 WRFGC chemics_init: Following information regarding Input_Opt% (for all doms)
 After domain           1
 HPC:  T
 LPRT:  F
 DoConv:  T
 DoDryDep:  T
 DoEmis:  T
 DoChem:  T
 DoTurb:  T
 DoWetDep:  T

 tropopause_init: DONE intialized domain            1

 mediation_integrate: med_read_wrf_chem_emissions: Open file wrfchemi_00z_d01
 HOURLY EMISSIONS UPDATE TIME        0.0       0.0
mediation_integrate: med_read_wrf_chem_emissions: Read emissions for time 2018-01-01_00:00:00
open_aux_u : error opening wrffirechemi_d01_2018-01-01_00:00:00 for reading. 100
open_aux_u : error opening wrfchemi_gocart_bg_d01 for reading. 100
d01 2018-01-01_00:00:00 Input data processed for aux input   8 for domain   1
open_aux_u : error opening wrfchemv_d01 for reading. 100
 Tile Strategy is not specified. Assuming 1D-Y
WRF TILE   1 IS     76 IE     90 JS    632 JE    640
WRF NUMBER OF TILES =   1
 max optd  1.4787505E+29
 max taucldi  0.0000000E+00
 max taucldw  0.0000000E+00
 =================================================
 W R F - G C   T I M E R S
    Domain           1 (Units: s)
 =================================================
  => Coupler Component                       0.027
   -- Physics & Parameterization             0.001
   -- Diagnostics Out                        0.000
  => GEOS-Chem Column                        0.000
  ===> Total Chemistry                       0.027
  => WRF                                     0.000
  ===> Total WRF-GC                          0.027
 max optd  1.4787505E+29
 max taucldi  1.0279273E-14
 max taucldw  1.0279273E-14
 %%%%%%%%% GIGC IN-PET GRID SWITCHING HACKS %%%%%%%%%
     (Not very) Proudly brought to you by hplin      
 Some debug information:
 ID:           1
 IM, JM, LM:          15           9          49  will be set as PAR
 Allocs: CMN T GC T
 RC at entry-point:           0
 %%%%%%%%%%%%%%%%%%%%%%%%%%%%%%%%%%%%%%%%%%%%%%%%%%%%
 No need to switch HcoState for ID           1
 Debug HcoState nSpc, NX, NY, NZ         163          15           9          49
 Exit RC:            0
 %%%%%%%%%    FINISHED GIGC_Switch_Dims    %%%%%%%%%
 GIGC_Chunk_Run: Running for in-PET grid #           1
 GIGC_Chunk_Run: Received new grid IM, JM, LM =          15           9
          49
HEMCO: Opening /fsx/HEMCO/BIOFUEL/v2014-07/biofuel.geos.4x5.nc
HEMCO: Opening /fsx/HEMCO/BROMINE/v2015-02/Bromocarb_Liang2010.nc
HEMCO: Opening /fsx/HEMCO/ACET/v2014-07/ACET_seawater.generic.1x1.nc
HEMCO: Opening /fsx/HEMCO/SOILNOX/v2014-07/DepReservoirDefault.nc
HEMCO: Opening /fsx/HEMCO/SOILNOX/v2014-07/soilNOx.landtype.generic.025x025.1L.nc
HEMCO: Opening /fsx/HEMCO/SOILNOX/v2014-07/soilNOx.climate.generic.05x05.nc
HEMCO: Opening /fsx/HEMCO/DUST_DEAD/v2014-07/dst_tibds.geos.4x5.nc
HEMCO: Opening /fsx/HEMCO/DUST_DEAD/v2014-07/GOCART_src_fn.geos.4x5.nc
HEMCO: Opening /fsx/HEMCO/MEGAN/v2018-05/MEGAN2.1_EF.geos.025x03125.nc
HEMCO: Opening /fsx/HEMCO/MEGAN/v2017-07/CLM4_PFT.geos.025x03125.nc
HEMCO: Opening /fsx/HEMCO/TIMEZONES/v2015-02/timezones_voronoi_1x1.nc
HEMCO: Opening /fsx/HEMCO/STRAT/v2015-01/Bry/GEOSCCM_Bry.200701.day.nc
HEMCO: Opening /fsx/HEMCO/STRAT/v2015-01/Bry/GEOSCCM_Bry.200701.night.nc
HEMCO: Opening /fsx/HEMCO/OMOC/v2018-01/OMOC.DJF.01x01.nc
HEMCO: Opening /fsx/HEMCO/OMOC/v2018-01/OMOC.MAM.01x01.nc
HEMCO: Opening /fsx/HEMCO/OMOC/v2018-01/OMOC.JJA.01x01.nc
HEMCO: Opening /fsx/HEMCO/OMOC/v2018-01/OMOC.SON.01x01.nc
HEMCO: Opening /fsx/HEMCO/AnnualScalar/v2014-07/AnnualScalar.geos.1x1.nc
HEMCO: Opening /fsx/HEMCO/EDGARv42/v2015-02/NO/EDGAR_hourly_NOxScal.nc
HEMCO: Opening /fsx/HEMCO/MASKS/v2018-09/EMEP_mask.geos.1x1.20151222.nc
HEMCO: Opening /fsx/HEMCO/MASKS/v2018-09/Canada_mask.geos.1x1.nc
HEMCO: Opening /fsx/HEMCO/MASKS/v2018-09/SE_Asia_mask.generic.1x1.nc
HEMCO: Opening /fsx/HEMCO/MASKS/v2018-09/MIX_Asia_mask.generic.025x025.nc
HEMCO: Opening /fsx/HEMCO/MASKS/v2018-09/CONUS_Mask.01x01.nc
HEMCO: Opening /fsx/HEMCO/MASKS/v2018-09/AF_LANDMASK.geos.05x0666.global.nc
HEMCO: Opening /fsx/HEMCO/MASKS/v2018-09/China_mask.generic.1x1.nc
HEMCO: Opening /fsx/HEMCO/MASKS/v2018-09/India_mask.generic.1x1.nc
HEMCO: Opening /fsx/HEMCO/AnnualScalar/v2014-07/AnnualScalar.geos.1x1.nc
HEMCO: Opening /fsx/HEMCO/NH3/v2014-07/NH3_geos.4x5.nc
HEMCO: Opening /fsx/HEMCO/NH3/v2018-04/NH3_Arctic_seabirds.nc
HEMCO: Opening /fsx/HEMCO/CEDS/v2018-08/2014/NO-em-anthro_CMIP_CEDS_2014.nc
HEMCO: Opening /fsx/HEMCO/CEDS/v2018-08/2014/CO-em-anthro_CMIP_CEDS_2014.nc
HEMCO: Opening /fsx/HEMCO/CEDS/v2018-08/2014/SO2-em-anthro_CMIP_CEDS_2014.nc
HEMCO: Opening /fsx/HEMCO/CEDS/v2018-08/2014/NH3-em-anthro_CMIP_CEDS_2014.nc
HEMCO: Opening /fsx/HEMCO/CEDS/v2018-08/2014/BC-em-anthro_CMIP_CEDS_2014.nc
HEMCO: Opening /fsx/HEMCO/CEDS/v2018-08/2014/OC-em-anthro_CMIP_CEDS_2014.nc
HEMCO: Opening /fsx/HEMCO/CEDS/v2018-08/2014/EOH-em-anthro_CMIP_CEDS_2014.nc
HEMCO: Opening /fsx/HEMCO/CEDS/v2018-08/2014/C2H6-em-anthro_CMIP_CEDS_2014.nc
HEMCO: Opening /fsx/HEMCO/CEDS/v2018-08/2014/C3H8-em-anthro_CMIP_CEDS_2014.nc
HEMCO: Opening /fsx/HEMCO/CEDS/v2018-08/2014/ALK4_butanes-em-anthro_CMIP_CEDS_2014.nc
HEMCO: Opening /fsx/HEMCO/CEDS/v2018-08/2014/ALK4_pentanes-em-anthro_CMIP_CEDS_2014.nc
HEMCO: Opening /fsx/HEMCO/CEDS/v2018-08/2014/ALK4_hexanes-em-anthro_CMIP_CEDS_2014.nc
HEMCO: Opening /fsx/HEMCO/CEDS/v2018-08/2014/PRPE-em-anthro_CMIP_CEDS_2014.nc
HEMCO: Opening /fsx/HEMCO/CEDS/v2018-08/2014/BENZ-em-anthro_CMIP_CEDS_2014.nc
HEMCO: Opening /fsx/HEMCO/CEDS/v2018-08/2014/TOLU-em-anthro_CMIP_CEDS_2014.nc
HEMCO: Opening /fsx/HEMCO/CEDS/v2018-08/2014/XYLE-em-anthro_CMIP_CEDS_2014.nc
HEMCO: Opening /fsx/HEMCO/CEDS/v2018-08/2014/CH2O-em-anthro_CMIP_CEDS_2014.nc
HEMCO: Opening /fsx/HEMCO/CEDS/v2018-08/2014/ALD2-em-anthro_CMIP_CEDS_2014.nc
HEMCO: Opening /fsx/HEMCO/CEDS/v2018-08/2014/MEK-em-anthro_CMIP_CEDS_2014.nc
HEMCO: Opening /fsx/HEMCO/CEDS/v2018-08/2014/HCOOH-em-anthro_CMIP_CEDS_2014.nc
HEMCO: Opening /fsx/HEMCO/C2H6_2010/v2017-05/C2H6_global_anth_biof.201001.nc
HEMCO: Opening /fsx/HEMCO/NEI2011/v2017-02-MM/01/NEI11_0.1x0.1_201101_monmean.nc
HEMCO: Opening /fsx/HEMCO/NEI2011/v2017-02-MM/01/NEI11_0.1x0.1_201101_monmean_egu.nc
HEMCO: Opening /fsx/HEMCO/NEI2011/v2017-02-MM/01/NEI11_0.1x0.1_201101_monmean_egupk.nc
HEMCO: Opening /fsx/HEMCO/NEI2011/v2017-02-MM/01/NEI11_0.1x0.1_201101_monmean_oilgas.nc
HEMCO: Opening /fsx/HEMCO/NEI2011/v2017-02-MM/01/NEI11_0.1x0.1_201101_monmean_othpt.nc
HEMCO: Opening /fsx/HEMCO/NEI2011/v2017-02-MM/01/NEI11_0.1x0.1_201101_monmean_ptnonipm.nc
HEMCO: Opening /fsx/HEMCO/IODINE/v2017-09/CH3I_monthly_emissions_Ordonez_2012_COARDS.nc
HEMCO: Opening /fsx/HEMCO/IODINE/v2017-09/CH2I2_monthly_emissions_Ordonez_2012_COARDS.nc
HEMCO: Opening /fsx/HEMCO/IODINE/v2017-09/CH2ICl_monthly_emissions_Ordonez_2012_COARDS.nc
HEMCO: Opening /fsx/HEMCO/IODINE/v2017-09/CH2IBr_monthly_emissions_Ordonez_2012_COARDS.nc
HEMCO: Opening /fsx/HEMCO/CEDS/v2018-08/2014/CO-em-anthro_CMIP_CEDS_2014.nc
HEMCO: Opening /fsx/HEMCO/CEDS/v2018-08/2014/SO2-em-anthro_CMIP_CEDS_2014.nc
HEMCO: Opening /fsx/HEMCO/CEDS/v2018-08/2014/NH3-em-anthro_CMIP_CEDS_2014.nc
HEMCO: Opening /fsx/HEMCO/CEDS/v2018-08/2014/BC-em-anthro_CMIP_CEDS_2014.nc
HEMCO: Opening /fsx/HEMCO/CEDS/v2018-08/2014/OC-em-anthro_CMIP_CEDS_2014.nc
HEMCO: Opening /fsx/HEMCO/CEDS/v2018-08/2014/EOH-em-anthro_CMIP_CEDS_2014.nc
HEMCO: Opening /fsx/HEMCO/CEDS/v2018-08/2014/C2H6-em-anthro_CMIP_CEDS_2014.nc
HEMCO: Opening /fsx/HEMCO/CEDS/v2018-08/2014/C3H8-em-anthro_CMIP_CEDS_2014.nc
HEMCO: Opening /fsx/HEMCO/CEDS/v2018-08/2014/ALK4_butanes-em-anthro_CMIP_CEDS_2014.nc
HEMCO: Opening /fsx/HEMCO/CEDS/v2018-08/2014/ALK4_pentanes-em-anthro_CMIP_CEDS_2014.nc
HEMCO: Opening /fsx/HEMCO/CEDS/v2018-08/2014/ALK4_hexanes-em-anthro_CMIP_CEDS_2014.nc
HEMCO: Opening /fsx/HEMCO/CEDS/v2018-08/2014/PRPE-em-anthro_CMIP_CEDS_2014.nc
HEMCO: Opening /fsx/HEMCO/CEDS/v2018-08/2014/BENZ-em-anthro_CMIP_CEDS_2014.nc
HEMCO: Opening /fsx/HEMCO/CEDS/v2018-08/2014/TOLU-em-anthro_CMIP_CEDS_2014.nc
HEMCO: Opening /fsx/HEMCO/CEDS/v2018-08/2014/XYLE-em-anthro_CMIP_CEDS_2014.nc
HEMCO: Opening /fsx/HEMCO/CEDS/v2018-08/2014/CH2O-em-anthro_CMIP_CEDS_2014.nc
HEMCO: Opening /fsx/HEMCO/CEDS/v2018-08/2014/ALD2-em-anthro_CMIP_CEDS_2014.nc
HEMCO: Opening /fsx/HEMCO/CEDS/v2018-08/2014/MEK-em-anthro_CMIP_CEDS_2014.nc
HEMCO: Opening /fsx/HEMCO/CEDS/v2018-08/2014/HCOOH-em-anthro_CMIP_CEDS_2014.nc
HEMCO: Opening /fsx/HEMCO/CEDS/v2018-08/2014/NO-em-anthro_CMIP_CEDS_2014.nc
HEMCO: Opening /fsx/HEMCO/AEIC/v2015-01/AEIC.47L.gen.1x1.nc
HEMCO: Opening /fsx/HEMCO/ALD2/v2017-03/resp.geos.2x25.nc
HEMCO: Opening /fsx/HEMCO/DMS/v2015-07/DMS_lana.geos.1x1.nc
HEMCO: Opening /fsx/HEMCO/ALD2/v2017-03/ALD2_seawater.geos.2x25.nc
HEMCO: Opening /fsx/HEMCO/DUST_DEAD/v2014-07/dst_tvbds.geos.4x5.nc
HEMCO: Opening /fsx/HEMCO/DUST_DEAD/v2018-04/PM25FINE_ECLIPSE_2015.geos.2x25.nc
HEMCO: Opening /fsx/HEMCO/SOA/v2014-07/NVOC.geos.1x1.nc
HEMCO: Opening /fsx/HEMCO/GFED4/v2015-10/2016/GFED4_gen.025x025.201601.nc
HEMCO: Opening /fsx/HEMCO/UVALBEDO/v2015-03/uvalbedo.geos.2x25.nc
HEMCO: Opening /fsx/HEMCO/GMI/v2015-02/gmi.clim.ACET.geos5.2x25.nc
HEMCO: Opening /fsx/HEMCO/GMI/v2015-02/gmi.clim.ACTA.geos5.2x25.nc
HEMCO: Opening /fsx/HEMCO/GMI/v2015-02/gmi.clim.ALD2.geos5.2x25.nc
HEMCO: Opening /fsx/HEMCO/GMI/v2015-02/gmi.clim.ALK4.geos5.2x25.nc
HEMCO: Opening /fsx/HEMCO/GMI/v2015-02/gmi.clim.C2H6.geos5.2x25.nc
HEMCO: Opening /fsx/HEMCO/GMI/v2015-02/gmi.clim.C3H8.geos5.2x25.nc
HEMCO: Opening /fsx/HEMCO/GMI/v2015-02/gmi.clim.CCl4.geos5.2x25.nc
HEMCO: Opening /fsx/HEMCO/GMI/v2015-02/gmi.clim.CF2Cl2.geos5.2x25.nc
HEMCO: Opening /fsx/HEMCO/GMI/v2015-02/gmi.clim.CF2ClBr.geos5.2x25.nc
HEMCO: Opening /fsx/HEMCO/GMI/v2015-02/gmi.clim.CFC113.geos5.2x25.nc
HEMCO: Opening /fsx/HEMCO/GMI/v2015-02/gmi.clim.CFC114.geos5.2x25.nc
HEMCO: Opening /fsx/HEMCO/GMI/v2015-02/gmi.clim.CFC115.geos5.2x25.nc
HEMCO: Opening /fsx/HEMCO/GMI/v2015-02/gmi.clim.CFCl3.geos5.2x25.nc
HEMCO: Opening /fsx/HEMCO/GMI/v2015-02/gmi.clim.CH2O.geos5.2x25.nc
HEMCO: Opening /fsx/HEMCO/GMI/v2015-02/gmi.clim.CH3CCl3.geos5.2x25.nc
HEMCO: Opening /fsx/HEMCO/GMI/v2015-02/gmi.clim.CH3Cl.geos5.2x25.nc
HEMCO: Opening /fsx/HEMCO/GMI/v2015-02/gmi.clim.CH4.geos5.2x25.nc
HEMCO: Opening /fsx/HEMCO/GMI/v2015-02/gmi.clim.CO.geos5.2x25.nc
HEMCO: Opening /fsx/HEMCO/GMI/v2015-02/gmi.clim.Cl.geos5.2x25.nc
HEMCO: Opening /fsx/HEMCO/GMI/v2015-02/gmi.clim.Cl2.geos5.2x25.nc
HEMCO: Opening /fsx/HEMCO/GMI/v2015-02/gmi.clim.Cl2O2.geos5.2x25.nc
HEMCO: Opening /fsx/HEMCO/GMI/v2015-02/gmi.clim.ClO.geos5.2x25.nc
HEMCO: Opening /fsx/HEMCO/GMI/v2015-02/gmi.clim.EOH.geos5.2x25.nc
HEMCO: Opening /fsx/HEMCO/GMI/v2015-02/gmi.clim.GLYC.geos5.2x25.nc
HEMCO: Opening /fsx/HEMCO/GMI/v2015-02/gmi.clim.GLYX.geos5.2x25.nc
HEMCO: Opening /fsx/HEMCO/GMI/v2015-02/gmi.clim.H2402.geos5.2x25.nc
HEMCO: Opening /fsx/HEMCO/GMI/v2015-02/gmi.clim.H2O.geos5.2x25.nc
HEMCO: Opening /fsx/HEMCO/GMI/v2015-02/gmi.clim.H2O2.geos5.2x25.nc
HEMCO: Opening /fsx/HEMCO/GMI/v2015-02/gmi.clim.HAC.geos5.2x25.nc
HEMCO: Opening /fsx/HEMCO/GMI/v2015-02/gmi.clim.HCFC141b.geos5.2x25.nc
HEMCO: Opening /fsx/HEMCO/GMI/v2015-02/gmi.clim.HCFC142b.geos5.2x25.nc
HEMCO: Opening /fsx/HEMCO/GMI/v2015-02/gmi.clim.HCFC22.geos5.2x25.nc
HEMCO: Opening /fsx/HEMCO/GMI/v2015-02/gmi.clim.HCOOH.geos5.2x25.20170108.nc
HEMCO: Opening /fsx/HEMCO/GMI/v2015-02/gmi.clim.HCl.geos5.2x25.nc
HEMCO: Opening /fsx/HEMCO/GMI/v2015-02/gmi.clim.HNO2.geos5.2x25.nc
HEMCO: Opening /fsx/HEMCO/GMI/v2015-02/gmi.clim.HNO3.geos5.2x25.nc
HEMCO: Opening /fsx/HEMCO/GMI/v2015-02/gmi.clim.HNO4.geos5.2x25.nc
HEMCO: Opening /fsx/HEMCO/GMI/v2015-02/gmi.clim.HOCl.geos5.2x25.nc
HEMCO: Opening /fsx/HEMCO/GMI/v2015-02/gmi.clim.ISN1.geos5.2x25.nc
HEMCO: Opening /fsx/HEMCO/GMI/v2015-02/gmi.clim.ISOP.geos5.2x25.nc
HEMCO: Opening /fsx/HEMCO/GMI/v2015-02/gmi.clim.MACR.geos5.2x25.nc
HEMCO: Opening /fsx/HEMCO/GMI/v2015-02/gmi.clim.MAP.geos5.2x25.nc
HEMCO: Opening /fsx/HEMCO/GMI/v2015-02/gmi.clim.MEK.geos5.2x25.nc
HEMCO: Opening /fsx/HEMCO/GMI/v2015-02/gmi.clim.MGLY.geos5.2x25.nc
HEMCO: Opening /fsx/HEMCO/GMI/v2015-02/gmi.clim.MP.geos5.2x25.nc
HEMCO: Opening /fsx/HEMCO/GMI/v2015-02/gmi.clim.MVK.geos5.2x25.nc
HEMCO: Opening /fsx/HEMCO/GMI/v2015-02/gmi.clim.N2O.geos5.2x25.nc
HEMCO: Opening /fsx/HEMCO/GMI/v2015-02/gmi.clim.N2O5.geos5.2x25.nc
HEMCO: Opening /fsx/HEMCO/GMI/v2015-02/gmi.clim.NO.geos5.2x25.nc
HEMCO: Opening /fsx/HEMCO/GMI/v2015-02/gmi.clim.NO2.geos5.2x25.nc
HEMCO: Opening /fsx/HEMCO/GMI/v2015-02/gmi.clim.NO3.geos5.2x25.nc
HEMCO: Opening /fsx/HEMCO/GMI/v2015-02/gmi.clim.O3.geos5.2x25.nc
HEMCO: Opening /fsx/HEMCO/GMI/v2015-02/gmi.clim.OClO.geos5.2x25.nc
HEMCO: Opening /fsx/HEMCO/GMI/v2015-02/gmi.clim.PAN.geos5.2x25.nc
HEMCO: Opening /fsx/HEMCO/GMI/v2015-02/gmi.clim.NPMN.geos5.2x25.nc
HEMCO: Opening /fsx/HEMCO/GMI/v2015-02/gmi.clim.IPMN.geos5.2x25.nc
HEMCO: Opening /fsx/HEMCO/GMI/v2015-02/gmi.clim.PPN.geos5.2x25.nc
HEMCO: Opening /fsx/HEMCO/GMI/v2015-02/gmi.clim.PRPE.geos5.2x25.nc
HEMCO: Opening /fsx/HEMCO/GMI/v2015-02/gmi.clim.R4N2.geos5.2x25.nc
HEMCO: Opening /fsx/HEMCO/GMI/v2015-02/gmi.clim.RCHO.geos5.2x25.nc
HEMCO: Opening /fsx/HEMCO/GMI/v2015-02/gmi.clim.RIPA.geos5.2x25.nc
HEMCO: Opening /fsx/HEMCO/GMI/v2015-02/gmi.clim.RIPB.geos5.2x25.nc
HEMCO: Opening /fsx/HEMCO/GMI/v2015-02/gmi.clim.RIPD.geos5.2x25.nc
HEMCO: Opening /fsx/HEMCO/GMI/v2015-02/gmi.clim.OH.geos5.2x25.nc
HEMCO: Opening /fsx/HEMCO/NOAA_GMD/v2018-01/monthly.gridded.surface.methane.1979-2020.1x1.nc
HEMCO: Opening /fsx/HEMCO/GEIA/v2014-07/GEIA_monthscal.generic.1x1.nc
HEMCO: Opening /fsx/HEMCO/EMEP/v2015-03/EMEP.Seasonal.geos.1x1.nc
HEMCO: Opening /fsx/HEMCO/BROMINE/v2015-02/BromoCarb_Season.nc
HEMCO: Opening /fsx/HEMCO/EDGARv43/v2016-11/EDGAR_v43.Seasonal.1x1.nc
HEMCO: Opening /fsx/HEMCO/NEI2005/v2014-09/scaling/NEI99.dow.geos.1x1.nc
HEMCO: Opening /fsx/HEMCO/VOLCANO/v2015-02/2009/volc_so2_gen.1x1.47L.200901.nc
HEMCO: Opening /fsx/HEMCO/SOILNOX/v2014-07/soilNOx.fert_res.generic.05x05.nc
 vdinti: pbl height will be limited to bottom           25  model levels. top is
     431.250100000000       hpa
 =================================================
 W R F - G C   T I M E R S
    Domain           1 (Units: s)
 =================================================
  => Coupler Component                       0.054
   -- Physics & Parameterization             0.010
   -- Diagnostics Out                        0.000
  => GEOS-Chem Column                      126.718
  ===> Total Chemistry                     126.772
  => WRF                                    17.418
  ===> Total WRF-GC                        144.190
 max optd  1.9364301E+31
 max taucldi  3.8194369E-08
 max taucldw  5.6810912E-08
 Switching is not necessary as we are already
 in the right domain!
 GIGC_Chunk_Run: Running for in-PET grid #           1
 GIGC_Chunk_Run: Received new grid IM, JM, LM =          15           9
          49
 =================================================
 W R F - G C   T I M E R S
    Domain           1 (Units: s)
 =================================================
  => Coupler Component                       0.087
   -- Physics & Parameterization             0.019
   -- Diagnostics Out                        0.000
  => GEOS-Chem Column                      127.958
  ===> Total Chemistry                     128.045
  => WRF                                    64.317
  ===> Total WRF-GC                        192.362
 max optd  1.9364301E+31
 max taucldi  7.2771229E-08
 max taucldw  1.1207150E-07
 Switching is not necessary as we are already
 in the right domain!
 GIGC_Chunk_Run: Running for in-PET grid #           1
 GIGC_Chunk_Run: Received new grid IM, JM, LM =          15           9
          49
 =================================================
 W R F - G C   T I M E R S
    Domain           1 (Units: s)
 =================================================
  => Coupler Component                       0.121
   -- Physics & Parameterization             0.029
   -- Diagnostics Out                        0.000
  => GEOS-Chem Column                      129.150
  ===> Total Chemistry                     129.272
  => WRF                                    84.903
  ===> Total WRF-GC                        214.174
 max optd  1.9364301E+31
 max taucldi  1.0601311E-07
 max taucldw  1.6302411E-07
 Switching is not necessary as we are already
 in the right domain!
 GIGC_Chunk_Run: Running for in-PET grid #           1
 GIGC_Chunk_Run: Received new grid IM, JM, LM =          15           9
          49
 =================================================
 W R F - G C   T I M E R S
    Domain           1 (Units: s)
 =================================================
  => Coupler Component                       0.159
   -- Physics & Parameterization             0.038
   -- Diagnostics Out                        0.000
  => GEOS-Chem Column                      130.321
  ===> Total Chemistry                     130.480
  => WRF                                   103.805
  ===> Total WRF-GC                        234.286
 max optd  1.9364301E+31
 max taucldi  1.3819357E-07
 max taucldw  2.1182794E-07
 Switching is not necessary as we are already
 in the right domain!
 GIGC_Chunk_Run: Running for in-PET grid #           1
 GIGC_Chunk_Run: Received new grid IM, JM, LM =          15           9
          49
 =================================================
 W R F - G C   T I M E R S
    Domain           1 (Units: s)
 =================================================
  => Coupler Component                       0.192
   -- Physics & Parameterization             0.047
   -- Diagnostics Out                        0.000
  => GEOS-Chem Column                      131.486
  ===> Total Chemistry                     131.679
  => WRF                                   122.257
  ===> Total WRF-GC                        253.936
 max optd  1.9364301E+31
 max taucldi  1.6852150E-07
 max taucldw  2.5903444E-07
 Switching is not necessary as we are already
 in the right domain!
 GIGC_Chunk_Run: Running for in-PET grid #           1
 GIGC_Chunk_Run: Received new grid IM, JM, LM =          15           9
          49
 =================================================
 W R F - G C   T I M E R S
    Domain           1 (Units: s)
 =================================================
  => Coupler Component                       0.224
   -- Physics & Parameterization             0.056
   -- Diagnostics Out                        0.000
  => GEOS-Chem Column                      132.678
  ===> Total Chemistry                     132.902
  => WRF                                   140.609
  ===> Total WRF-GC                        273.511
 max optd  1.9364301E+31
 max taucldi  2.0031639E-07
 max taucldw  2.9997281E-07
 Switching is not necessary as we are already
 in the right domain!
 GIGC_Chunk_Run: Running for in-PET grid #           1
 GIGC_Chunk_Run: Received new grid IM, JM, LM =          15           9
          49
 =================================================
 W R F - G C   T I M E R S
    Domain           1 (Units: s)
 =================================================
  => Coupler Component                       0.258
   -- Physics & Parameterization             0.065
   -- Diagnostics Out                        0.000
  => GEOS-Chem Column                      133.854
  ===> Total Chemistry                     134.113
  => WRF                                   158.931
  ===> Total WRF-GC                        293.044
 max optd  1.9364301E+31
 max taucldi  2.3446133E-07
 max taucldw  3.5036882E-07
 Switching is not necessary as we are already
 in the right domain!
 GIGC_Chunk_Run: Running for in-PET grid #           1
 GIGC_Chunk_Run: Received new grid IM, JM, LM =          15           9
          49
 =================================================
 W R F - G C   T I M E R S
    Domain           1 (Units: s)
 =================================================
  => Coupler Component                       0.295
   -- Physics & Parameterization             0.074
   -- Diagnostics Out                        0.000
  => GEOS-Chem Column                      135.048
  ===> Total Chemistry                     135.342
  => WRF                                   177.168
  ===> Total WRF-GC                        312.511
 max optd  1.9364301E+31
 max taucldi  2.6997785E-07
 max taucldw  3.9886501E-07
 Switching is not necessary as we are already
 in the right domain!
 GIGC_Chunk_Run: Running for in-PET grid #           1
 GIGC_Chunk_Run: Received new grid IM, JM, LM =          15           9
          49
 =================================================
 W R F - G C   T I M E R S
    Domain           1 (Units: s)
 =================================================
  => Coupler Component                       0.325
   -- Physics & Parameterization             0.083
   -- Diagnostics Out                        0.000
  => GEOS-Chem Column                      136.222
  ===> Total Chemistry                     136.547
  => WRF                                   195.402
  ===> Total WRF-GC                        331.949
 max optd  1.9364301E+31
 max taucldi  3.0619600E-07
 max taucldw  4.3216568E-07
 Switching is not necessary as we are already
 in the right domain!
 GIGC_Chunk_Run: Running for in-PET grid #           1
 GIGC_Chunk_Run: Received new grid IM, JM, LM =          15           9
          49
 =================================================
 W R F - G C   T I M E R S
    Domain           1 (Units: s)
 =================================================
  => Coupler Component                       0.355
   -- Physics & Parameterization             0.092
   -- Diagnostics Out                        0.000
  => GEOS-Chem Column                      137.342
  ===> Total Chemistry                     137.696
  => WRF                                   213.728
  ===> Total WRF-GC                        351.424
 max optd  1.9364301E+31
 max taucldi  3.3875855E-07
 max taucldw  4.5976043E-07
 Switching is not necessary as we are already
 in the right domain!
 GIGC_Chunk_Run: Running for in-PET grid #           1
 GIGC_Chunk_Run: Received new grid IM, JM, LM =          15           9
          49
 =================================================
 W R F - G C   T I M E R S
    Domain           1 (Units: s)
 =================================================
  => Coupler Component                       0.388
   -- Physics & Parameterization             0.102
   -- Diagnostics Out                        0.000
  => GEOS-Chem Column                      138.392
  ===> Total Chemistry                     138.780
  => WRF                                   232.024
  ===> Total WRF-GC                        370.804
 max optd  1.9364301E+31
 max taucldi  3.6668354E-07
 max taucldw  4.8220181E-07
 Switching is not necessary as we are already
 in the right domain!
 GIGC_Chunk_Run: Running for in-PET grid #           1
 GIGC_Chunk_Run: Received new grid IM, JM, LM =          15           9
          49
 =================================================
 W R F - G C   T I M E R S
    Domain           1 (Units: s)
 =================================================
  => Coupler Component                       0.428
   -- Physics & Parameterization             0.111
   -- Diagnostics Out                        0.000
  => GEOS-Chem Column                      139.456
  ===> Total Chemistry                     139.883
  => WRF                                   250.275
  ===> Total WRF-GC                        390.158
 HOURLY EMISSIONS UPDATE TIME     3600.0       0.0
mediation_integrate: med_read_wrf_chem_emissions: Read emissions for time 2018-01-01_01:00:00
 max optd  1.9364301E+31
 max taucldi  3.8888260E-07
 max taucldw  5.0173622E-07
 Switching is not necessary as we are already
 in the right domain!
 GIGC_Chunk_Run: Running for in-PET grid #           1
 GIGC_Chunk_Run: Received new grid IM, JM, LM =          15           9
          49
 =================================================
 W R F - G C   T I M E R S
    Domain           1 (Units: s)
 =================================================
  => Coupler Component                       0.461
   -- Physics & Parameterization             0.120
   -- Diagnostics Out                        0.000
  => GEOS-Chem Column                      140.522
  ===> Total Chemistry                     140.983
  => WRF                                   268.578
  ===> Total WRF-GC                        409.561
 max optd  1.9364301E+31
 max taucldi  4.0510994E-07
 max taucldw  5.2706406E-07
 Switching is not necessary as we are already
 in the right domain!
 GIGC_Chunk_Run: Running for in-PET grid #           1
 GIGC_Chunk_Run: Received new grid IM, JM, LM =          15           9
          49
 =================================================
 W R F - G C   T I M E R S
    Domain           1 (Units: s)
 =================================================
  => Coupler Component                       0.497
   -- Physics & Parameterization             0.129
   -- Diagnostics Out                        0.000
  => GEOS-Chem Column                      141.590
  ===> Total Chemistry                     142.087
  => WRF                                   286.882
  ===> Total WRF-GC                        428.968
 max optd  1.9364301E+31
 max taucldi  4.1742231E-07
 max taucldw  5.5732301E-07
 Switching is not necessary as we are already
 in the right domain!
 GIGC_Chunk_Run: Running for in-PET grid #           1
 GIGC_Chunk_Run: Received new grid IM, JM, LM =          15           9
          49
 =================================================
 W R F - G C   T I M E R S
    Domain           1 (Units: s)
 =================================================
  => Coupler Component                       0.535
   -- Physics & Parameterization             0.138
   -- Diagnostics Out                        0.000
  => GEOS-Chem Column                      142.630
  ===> Total Chemistry                     143.165
  => WRF                                   305.091
  ===> Total WRF-GC                        448.256
 max optd  1.9364301E+31
 max taucldi  4.2824786E-07
 max taucldw  5.9227369E-07
 Switching is not necessary as we are already
 in the right domain!
 GIGC_Chunk_Run: Running for in-PET grid #           1
 GIGC_Chunk_Run: Received new grid IM, JM, LM =          15           9
          49
 =================================================
 W R F - G C   T I M E R S
    Domain           1 (Units: s)
 =================================================
  => Coupler Component                       0.571
   -- Physics & Parameterization             0.147
   -- Diagnostics Out                        0.000
  => GEOS-Chem Column                      143.691
  ===> Total Chemistry                     144.263
  => WRF                                   323.345
  ===> Total WRF-GC                        467.608
 max optd  1.9364301E+31
 max taucldi  4.3757962E-07
 max taucldw  6.3068973E-07
 Switching is not necessary as we are already
 in the right domain!
 GIGC_Chunk_Run: Running for in-PET grid #           1
 GIGC_Chunk_Run: Received new grid IM, JM, LM =          15           9
          49
 =================================================
 W R F - G C   T I M E R S
    Domain           1 (Units: s)
 =================================================
  => Coupler Component                       0.607
   -- Physics & Parameterization             0.157
   -- Diagnostics Out                        0.000
  => GEOS-Chem Column                      144.758
  ===> Total Chemistry                     145.365
  => WRF                                   341.573
  ===> Total WRF-GC                        486.938
 max optd  1.9364301E+31
 max taucldi  4.4575305E-07
 max taucldw  6.7205946E-07
 Switching is not necessary as we are already
 in the right domain!
 GIGC_Chunk_Run: Running for in-PET grid #           1
 GIGC_Chunk_Run: Received new grid IM, JM, LM =          15           9
          49
 =================================================
 W R F - G C   T I M E R S
    Domain           1 (Units: s)
 =================================================
  => Coupler Component                       0.641
   -- Physics & Parameterization             0.166
   -- Diagnostics Out                        0.000
  => GEOS-Chem Column                      145.820
  ===> Total Chemistry                     146.461
  => WRF                                   359.760
  ===> Total WRF-GC                        506.221
 max optd  1.9364301E+31
 max taucldi  4.5234083E-07
 max taucldw  7.1734371E-07
 Switching is not necessary as we are already
 in the right domain!
 GIGC_Chunk_Run: Running for in-PET grid #           1
 GIGC_Chunk_Run: Received new grid IM, JM, LM =          15           9
          49
 =================================================
 W R F - G C   T I M E R S
    Domain           1 (Units: s)
 =================================================
  => Coupler Component                       0.674
   -- Physics & Parameterization             0.175
   -- Diagnostics Out                        0.000
  => GEOS-Chem Column                      146.879
  ===> Total Chemistry                     147.553
  => WRF                                   378.000
  ===> Total WRF-GC                        525.552
 max optd  1.9364301E+31
 max taucldi  4.5788354E-07
 max taucldw  7.6565078E-07
 Switching is not necessary as we are already
 in the right domain!
 GIGC_Chunk_Run: Running for in-PET grid #           1
 GIGC_Chunk_Run: Received new grid IM, JM, LM =          15           9
          49
 =================================================
 W R F - G C   T I M E R S
    Domain           1 (Units: s)
 =================================================
  => Coupler Component                       0.718
   -- Physics & Parameterization             0.184
   -- Diagnostics Out                        0.000
  => GEOS-Chem Column                      147.946
  ===> Total Chemistry                     148.664
  => WRF                                   396.354
  ===> Total WRF-GC                        545.018
 max optd  1.9364301E+31
 max taucldi  4.6218747E-07
 max taucldw  8.1218110E-07
 Switching is not necessary as we are already
 in the right domain!
 GIGC_Chunk_Run: Running for in-PET grid #           1
 GIGC_Chunk_Run: Received new grid IM, JM, LM =          15           9
          49
 =================================================
 W R F - G C   T I M E R S
    Domain           1 (Units: s)
 =================================================
  => Coupler Component                       0.752
   -- Physics & Parameterization             0.193
   -- Diagnostics Out                        0.000
  => GEOS-Chem Column                      149.017
  ===> Total Chemistry                     149.769
  => WRF                                   414.427
  ===> Total WRF-GC                        564.196
 max optd  1.9364301E+31
 max taucldi  4.6472681E-07
 max taucldw  8.5252765E-07
 Switching is not necessary as we are already
 in the right domain!
 GIGC_Chunk_Run: Running for in-PET grid #           1
 GIGC_Chunk_Run: Received new grid IM, JM, LM =          15           9
          49
 =================================================
 W R F - G C   T I M E R S
    Domain           1 (Units: s)
 =================================================
  => Coupler Component                       0.786
   -- Physics & Parameterization             0.202
   -- Diagnostics Out                        0.000
  => GEOS-Chem Column                      150.085
  ===> Total Chemistry                     150.872
  => WRF                                   432.598
  ===> Total WRF-GC                        583.469
 max optd  1.9364301E+31
 max taucldi  4.6547169E-07
 max taucldw  8.8685721E-07
 Switching is not necessary as we are already
 in the right domain!
 GIGC_Chunk_Run: Running for in-PET grid #           1
 GIGC_Chunk_Run: Received new grid IM, JM, LM =          15           9
          49
 =================================================
 W R F - G C   T I M E R S
    Domain           1 (Units: s)
 =================================================
  => Coupler Component                       0.819
   -- Physics & Parameterization             0.212
   -- Diagnostics Out                        0.000
  => GEOS-Chem Column                      151.149
  ===> Total Chemistry                     151.968
  => WRF                                   450.878
  ===> Total WRF-GC                        602.846
 max optd  1.9364301E+31
 max taucldi  4.6403710E-07
 max taucldw  9.1800513E-07
 Switching is not necessary as we are already
 in the right domain!
 GIGC_Chunk_Run: Running for in-PET grid #           1
 GIGC_Chunk_Run: Received new grid IM, JM, LM =          15           9
          49
 =================================================
 W R F - G C   T I M E R S
    Domain           1 (Units: s)
 =================================================
  => Coupler Component                       0.858
   -- Physics & Parameterization             0.221
   -- Diagnostics Out                        0.000
  => GEOS-Chem Column                      152.208
  ===> Total Chemistry                     153.066
  => WRF                                   469.040
  ===> Total WRF-GC                        622.105
 HOURLY EMISSIONS UPDATE TIME     7200.0       0.0
mediation_integrate: med_read_wrf_chem_emissions: Read emissions for time 2018-01-01_02:00:00
 max optd  1.9364301E+31
 max taucldi  4.6101951E-07
 max taucldw  9.4799839E-07
 Switching is not necessary as we are already
 in the right domain!
 GIGC_Chunk_Run: Running for in-PET grid #           1
 GIGC_Chunk_Run: Received new grid IM, JM, LM =          15           9
          49
 =================================================
 W R F - G C   T I M E R S
    Domain           1 (Units: s)
 =================================================
  => Coupler Component                       0.894
   -- Physics & Parameterization             0.230
   -- Diagnostics Out                        0.000
  => GEOS-Chem Column                      153.270
  ===> Total Chemistry                     154.164
  => WRF                                   487.253
  ===> Total WRF-GC                        641.417
 max optd  1.9364301E+31
 max taucldi  4.5851525E-07
 max taucldw  9.7568147E-07
 Switching is not necessary as we are already
 in the right domain!
 GIGC_Chunk_Run: Running for in-PET grid #           1
 GIGC_Chunk_Run: Received new grid IM, JM, LM =          15           9
          49
 =================================================
 W R F - G C   T I M E R S
    Domain           1 (Units: s)
 =================================================
  => Coupler Component                       0.934
   -- Physics & Parameterization             0.239
   -- Diagnostics Out                        0.000
  => GEOS-Chem Column                      154.328
  ===> Total Chemistry                     155.262
  => WRF                                   505.460
  ===> Total WRF-GC                        660.723
 max optd  1.9364301E+31
 max taucldi  4.5635738E-07
 max taucldw  9.9793135E-07
 Switching is not necessary as we are already
 in the right domain!
 GIGC_Chunk_Run: Running for in-PET grid #           1
 GIGC_Chunk_Run: Received new grid IM, JM, LM =          15           9
          49
 =================================================
 W R F - G C   T I M E R S
    Domain           1 (Units: s)
 =================================================
  => Coupler Component                       0.971
   -- Physics & Parameterization             0.248
   -- Diagnostics Out                        0.000
  => GEOS-Chem Column                      155.396
  ===> Total Chemistry                     156.366
  => WRF                                   523.578
  ===> Total WRF-GC                        679.944
 max optd  1.9364301E+31
 max taucldi  4.6016547E-07
 max taucldw  1.0148900E-06
 Switching is not necessary as we are already
 in the right domain!
 GIGC_Chunk_Run: Running for in-PET grid #           1
 GIGC_Chunk_Run: Received new grid IM, JM, LM =          15           9
          49
 =================================================
 W R F - G C   T I M E R S
    Domain           1 (Units: s)
 =================================================
  => Coupler Component                       1.004
   -- Physics & Parameterization             0.257
   -- Diagnostics Out                        0.000
  => GEOS-Chem Column                      156.452
  ===> Total Chemistry                     157.456
  => WRF                                   541.669
  ===> Total WRF-GC                        699.125
 max optd  1.9364301E+31
 max taucldi  4.7433559E-07
 max taucldw  1.0262419E-06
 Switching is not necessary as we are already
 in the right domain!
 GIGC_Chunk_Run: Running for in-PET grid #           1
 GIGC_Chunk_Run: Received new grid IM, JM, LM =          15           9
          49
 =================================================
 W R F - G C   T I M E R S
    Domain           1 (Units: s)
 =================================================
  => Coupler Component                       1.038
   -- Physics & Parameterization             0.266
   -- Diagnostics Out                        0.000
  => GEOS-Chem Column                      157.527
  ===> Total Chemistry                     158.565
  => WRF                                   559.813
  ===> Total WRF-GC                        718.378
 max optd  1.9364301E+31
 max taucldi  4.8870783E-07
 max taucldw  1.0582287E-06
 Switching is not necessary as we are already
 in the right domain!
 GIGC_Chunk_Run: Running for in-PET grid #           1
 GIGC_Chunk_Run: Received new grid IM, JM, LM =          15           9
          49
 =================================================
 W R F - G C   T I M E R S
    Domain           1 (Units: s)
 =================================================
  => Coupler Component                       1.077
   -- Physics & Parameterization             0.276
   -- Diagnostics Out                        0.000
  => GEOS-Chem Column                      158.593
  ===> Total Chemistry                     159.670
  => WRF                                   577.936
  ===> Total WRF-GC                        737.606
 max optd  1.9364301E+31
 max taucldi  5.0198571E-07
 max taucldw  1.1130617E-06
 Switching is not necessary as we are already
 in the right domain!
 GIGC_Chunk_Run: Running for in-PET grid #           1
 GIGC_Chunk_Run: Received new grid IM, JM, LM =          15           9
          49
 =================================================
 W R F - G C   T I M E R S
    Domain           1 (Units: s)
 =================================================
  => Coupler Component                       1.111
   -- Physics & Parameterization             0.285
   -- Diagnostics Out                        0.000
  => GEOS-Chem Column                      159.658
  ===> Total Chemistry                     160.769
  => WRF                                   596.070
  ===> Total WRF-GC                        756.839
 max optd  1.9364301E+31
 max taucldi  5.1369528E-07
 max taucldw  1.1594941E-06
 Switching is not necessary as we are already
 in the right domain!
 GIGC_Chunk_Run: Running for in-PET grid #           1
 GIGC_Chunk_Run: Received new grid IM, JM, LM =          15           9
          49
 =================================================
 W R F - G C   T I M E R S
    Domain           1 (Units: s)
 =================================================
  => Coupler Component                       1.147
   -- Physics & Parameterization             0.294
   -- Diagnostics Out                        0.000
  => GEOS-Chem Column                      160.726
  ===> Total Chemistry                     161.872
  => WRF                                   614.145
  ===> Total WRF-GC                        776.018
 max optd  1.9364301E+31
 max taucldi  5.2364527E-07
 max taucldw  1.1979498E-06
 Switching is not necessary as we are already
 in the right domain!
 GIGC_Chunk_Run: Running for in-PET grid #           1
 GIGC_Chunk_Run: Received new grid IM, JM, LM =          15           9
          49
 =================================================
 W R F - G C   T I M E R S
    Domain           1 (Units: s)
 =================================================
  => Coupler Component                       1.185
   -- Physics & Parameterization             0.303
   -- Diagnostics Out                        0.000
  => GEOS-Chem Column                      161.793
  ===> Total Chemistry                     162.978
  => WRF                                   632.225
  ===> Total WRF-GC                        795.203
 max optd  1.9364301E+31
 max taucldi  5.3141423E-07
 max taucldw  1.2288209E-06
 Switching is not necessary as we are already
 in the right domain!
 GIGC_Chunk_Run: Running for in-PET grid #           1
 GIGC_Chunk_Run: Received new grid IM, JM, LM =          15           9
          49
 =================================================
 W R F - G C   T I M E R S
    Domain           1 (Units: s)
 =================================================
  => Coupler Component                       1.221
   -- Physics & Parameterization             0.312
   -- Diagnostics Out                        0.000
  => GEOS-Chem Column                      162.860
  ===> Total Chemistry                     164.081
  => WRF                                   650.369
  ===> Total WRF-GC                        814.449
 max optd  1.9364301E+31
 max taucldi  5.3705156E-07
 max taucldw  1.2542840E-06
 Switching is not necessary as we are already
 in the right domain!
 GIGC_Chunk_Run: Running for in-PET grid #           1
 GIGC_Chunk_Run: Received new grid IM, JM, LM =          15           9
          49
 =================================================
 W R F - G C   T I M E R S
    Domain           1 (Units: s)
 =================================================
  => Coupler Component                       1.260
   -- Physics & Parameterization             0.321
   -- Diagnostics Out                        0.000
  => GEOS-Chem Column                      163.923
  ===> Total Chemistry                     165.182
  => WRF                                   668.415
  ===> Total WRF-GC                        833.598
 max optd  1.9364301E+31
 max taucldi  5.4030164E-07
 max taucldw  1.2776503E-06
 Switching is not necessary as we are already
 in the right domain!
 GIGC_Chunk_Run: Running for in-PET grid #           1
 GIGC_Chunk_Run: Received new grid IM, JM, LM =          15           9
          49
 =================================================
 W R F - G C   T I M E R S
    Domain           1 (Units: s)
 =================================================
  => Coupler Component                       1.293
   -- Physics & Parameterization             0.330
   -- Diagnostics Out                        0.000
  => GEOS-Chem Column                      164.986
  ===> Total Chemistry                     166.279
  => WRF                                   686.481
  ===> Total WRF-GC                        852.761
 HOURLY EMISSIONS UPDATE TIME    10800.0       0.0
mediation_integrate: med_read_wrf_chem_emissions: Read emissions for time 2018-01-01_03:00:00
 max optd  1.9364301E+31
 max taucldi  5.4126053E-07
 max taucldw  1.3006620E-06
 Switching is not necessary as we are already
 in the right domain!
 GIGC_Chunk_Run: Running for in-PET grid #           1
 GIGC_Chunk_Run: Received new grid IM, JM, LM =          15           9
          49
 =================================================
 W R F - G C   T I M E R S
    Domain           1 (Units: s)
 =================================================
  => Coupler Component                       1.326
   -- Physics & Parameterization             0.339
   -- Diagnostics Out                        0.000
  => GEOS-Chem Column                      166.054
  ===> Total Chemistry                     167.380
  => WRF                                   704.607
  ===> Total WRF-GC                        871.987
 max optd  1.9364301E+31
 max taucldi  5.4067738E-07
 max taucldw  1.3231786E-06
 Switching is not necessary as we are already
 in the right domain!
 GIGC_Chunk_Run: Running for in-PET grid #           1
 GIGC_Chunk_Run: Received new grid IM, JM, LM =          15           9
          49
 =================================================
 W R F - G C   T I M E R S
    Domain           1 (Units: s)
 =================================================
  => Coupler Component                       1.362
   -- Physics & Parameterization             0.348
   -- Diagnostics Out                        0.000
  => GEOS-Chem Column                      167.123
  ===> Total Chemistry                     168.485
  => WRF                                   722.688
  ===> Total WRF-GC                        891.172
 max optd  1.9364301E+31
 max taucldi  5.3989902E-07
 max taucldw  1.3452139E-06
 Switching is not necessary as we are already
 in the right domain!
 GIGC_Chunk_Run: Running for in-PET grid #           1
 GIGC_Chunk_Run: Received new grid IM, JM, LM =          15           9
          49
 =================================================
 W R F - G C   T I M E R S
    Domain           1 (Units: s)
 =================================================
  => Coupler Component                       1.395
   -- Physics & Parameterization             0.357
   -- Diagnostics Out                        0.000
  => GEOS-Chem Column                      168.187
  ===> Total Chemistry                     169.582
  => WRF                                   740.778
  ===> Total WRF-GC                        910.360
 max optd  1.9364301E+31
 max taucldi  5.4021359E-07
 max taucldw  1.3671078E-06
 Switching is not necessary as we are already
 in the right domain!
 GIGC_Chunk_Run: Running for in-PET grid #           1
 GIGC_Chunk_Run: Received new grid IM, JM, LM =          15           9
          49
 =================================================
 W R F - G C   T I M E R S
    Domain           1 (Units: s)
 =================================================
  => Coupler Component                       1.433
   -- Physics & Parameterization             0.366
   -- Diagnostics Out                        0.000
  => GEOS-Chem Column                      169.260
  ===> Total Chemistry                     170.694
  => WRF                                   758.867
  ===> Total WRF-GC                        929.560
 max optd  1.9364301E+31
 max taucldi  5.4204207E-07
 max taucldw  1.3896075E-06
 Switching is not necessary as we are already
 in the right domain!
 GIGC_Chunk_Run: Running for in-PET grid #           1
 GIGC_Chunk_Run: Received new grid IM, JM, LM =          15           9
          49
 =================================================
 W R F - G C   T I M E R S
    Domain           1 (Units: s)
 =================================================
  => Coupler Component                       1.470
   -- Physics & Parameterization             0.375
   -- Diagnostics Out                        0.000
  => GEOS-Chem Column                      170.338
  ===> Total Chemistry                     171.807
  => WRF                                   776.910
  ===> Total WRF-GC                        948.717
 max optd  1.9364301E+31
 max taucldi  5.4508217E-07
 max taucldw  1.4126249E-06
 Switching is not necessary as we are already
 in the right domain!
 GIGC_Chunk_Run: Running for in-PET grid #           1
 GIGC_Chunk_Run: Received new grid IM, JM, LM =          15           9
          49
 =================================================
 W R F - G C   T I M E R S
    Domain           1 (Units: s)
 =================================================
  => Coupler Component                       1.505
   -- Physics & Parameterization             0.384
   -- Diagnostics Out                        0.000
  => GEOS-Chem Column                      171.397
  ===> Total Chemistry                     172.902
  => WRF                                   795.237
  ===> Total WRF-GC                        968.139
 max optd  1.9364301E+31
 max taucldi  5.4854740E-07
 max taucldw  1.4334701E-06
 Switching is not necessary as we are already
 in the right domain!
 GIGC_Chunk_Run: Running for in-PET grid #           1
 GIGC_Chunk_Run: Received new grid IM, JM, LM =          15           9
          49
 =================================================
 W R F - G C   T I M E R S
    Domain           1 (Units: s)
 =================================================
  => Coupler Component                       1.541
   -- Physics & Parameterization             0.393
   -- Diagnostics Out                        0.000
  => GEOS-Chem Column                      172.454
  ===> Total Chemistry                     173.994
  => WRF                                   813.407
  ===> Total WRF-GC                        987.401
 max optd  1.9364301E+31
 max taucldi  5.5240918E-07
 max taucldw  1.4480877E-06
 Switching is not necessary as we are already
 in the right domain!
 GIGC_Chunk_Run: Running for in-PET grid #           1
 GIGC_Chunk_Run: Received new grid IM, JM, LM =          15           9
          49
 =================================================
 W R F - G C   T I M E R S
    Domain           1 (Units: s)
 =================================================
  => Coupler Component                       1.580
   -- Physics & Parameterization             0.402
   -- Diagnostics Out                        0.000
  => GEOS-Chem Column                      173.493
  ===> Total Chemistry                     175.073
  => WRF                                   831.400
  ===> Total WRF-GC                       1006.473
 max optd  1.9364301E+31
 max taucldi  5.5665157E-07
 max taucldw  1.4549871E-06
 Switching is not necessary as we are already
 in the right domain!
 GIGC_Chunk_Run: Running for in-PET grid #           1
 GIGC_Chunk_Run: Received new grid IM, JM, LM =          15           9
          49
 =================================================
 W R F - G C   T I M E R S
    Domain           1 (Units: s)
 =================================================
  => Coupler Component                       1.614
   -- Physics & Parameterization             0.411
   -- Diagnostics Out                        0.000
  => GEOS-Chem Column                      174.554
  ===> Total Chemistry                     176.168
  => WRF                                   849.671
  ===> Total WRF-GC                       1025.840
 max optd  1.9364301E+31
 max taucldi  5.6104955E-07
 max taucldw  1.4550751E-06
 Switching is not necessary as we are already
 in the right domain!
 GIGC_Chunk_Run: Running for in-PET grid #           1
 GIGC_Chunk_Run: Received new grid IM, JM, LM =          15           9
          49
 =================================================
 W R F - G C   T I M E R S
    Domain           1 (Units: s)
 =================================================
  => Coupler Component                       1.650
   -- Physics & Parameterization             0.420
   -- Diagnostics Out                        0.000
  => GEOS-Chem Column                      175.616
  ===> Total Chemistry                     177.266
  => WRF                                   867.810
  ===> Total WRF-GC                       1045.077
 max optd  1.9364301E+31
 max taucldi  5.6541001E-07
 max taucldw  1.4506076E-06
 Switching is not necessary as we are already
 in the right domain!
 GIGC_Chunk_Run: Running for in-PET grid #           1
 GIGC_Chunk_Run: Received new grid IM, JM, LM =          15           9
          49
 =================================================
 W R F - G C   T I M E R S
    Domain           1 (Units: s)
 =================================================
  => Coupler Component                       1.688
   -- Physics & Parameterization             0.429
   -- Diagnostics Out                        0.000
  => GEOS-Chem Column                      176.684
  ===> Total Chemistry                     178.372
  => WRF                                   885.896
  ===> Total WRF-GC                       1064.268
 max optd  1.9364301E+31
 max taucldi  5.6910068E-07
 max taucldw  1.4461708E-06
 Switching is not necessary as we are already
 in the right domain!
 GIGC_Chunk_Run: Running for in-PET grid #           1
 GIGC_Chunk_Run: Received new grid IM, JM, LM =          15           9
          49
 =================================================
 W R F - G C   T I M E R S
    Domain           1 (Units: s)
 =================================================
  => Coupler Component                       1.722
   -- Physics & Parameterization             0.438
   -- Diagnostics Out                        0.000
  => GEOS-Chem Column                      177.737
  ===> Total Chemistry                     179.459
  => WRF                                   904.027
  ===> Total WRF-GC                       1083.486
 HOURLY EMISSIONS UPDATE TIME    14400.0       0.0
mediation_integrate: med_read_wrf_chem_emissions: Read emissions for time 2018-01-01_04:00:00
 max optd  1.9364301E+31
 max taucldi  5.7186685E-07
 max taucldw  1.4446887E-06
 Switching is not necessary as we are already
 in the right domain!
 GIGC_Chunk_Run: Running for in-PET grid #           1
 GIGC_Chunk_Run: Received new grid IM, JM, LM =          15           9
          49
 =================================================
 W R F - G C   T I M E R S
    Domain           1 (Units: s)
 =================================================
  => Coupler Component                       1.759
   -- Physics & Parameterization             0.447
   -- Diagnostics Out                        0.000
  => GEOS-Chem Column                      178.796
  ===> Total Chemistry                     180.555
  => WRF                                   922.170
  ===> Total WRF-GC                       1102.725
 max optd  1.9364301E+31
 max taucldi  5.7370102E-07
 max taucldw  1.4456500E-06
 Switching is not necessary as we are already
 in the right domain!
 GIGC_Chunk_Run: Running for in-PET grid #           1
 GIGC_Chunk_Run: Received new grid IM, JM, LM =          15           9
          49
 =================================================
 W R F - G C   T I M E R S
    Domain           1 (Units: s)
 =================================================
  => Coupler Component                       1.795
   -- Physics & Parameterization             0.456
   -- Diagnostics Out                        0.000
  => GEOS-Chem Column                      179.862
  ===> Total Chemistry                     181.657
  => WRF                                   940.308
  ===> Total WRF-GC                       1121.965
 max optd  1.9364301E+31
 max taucldi  5.7468554E-07
 max taucldw  1.4483721E-06
 Switching is not necessary as we are already
 in the right domain!
 GIGC_Chunk_Run: Running for in-PET grid #           1
 GIGC_Chunk_Run: Received new grid IM, JM, LM =          15           9
          49
 =================================================
 W R F - G C   T I M E R S
    Domain           1 (Units: s)
 =================================================
  => Coupler Component                       1.831
   -- Physics & Parameterization             0.465
   -- Diagnostics Out                        0.000
  => GEOS-Chem Column                      180.921
  ===> Total Chemistry                     182.752
  => WRF                                   958.519
  ===> Total WRF-GC                       1141.271
 max optd  1.9364301E+31
 max taucldi  5.7444760E-07
 max taucldw  1.4518881E-06
 Switching is not necessary as we are already
 in the right domain!
 GIGC_Chunk_Run: Running for in-PET grid #           1
 GIGC_Chunk_Run: Received new grid IM, JM, LM =          15           9
          49
 =================================================
 W R F - G C   T I M E R S
    Domain           1 (Units: s)
 =================================================
  => Coupler Component                       1.868
   -- Physics & Parameterization             0.474
   -- Diagnostics Out                        0.000
  => GEOS-Chem Column                      181.983
  ===> Total Chemistry                     183.851
  => WRF                                   976.628
  ===> Total WRF-GC                       1160.478
 max optd  1.9364301E+31
 max taucldi  5.7295398E-07
 max taucldw  1.4551465E-06
 Switching is not necessary as we are already
 in the right domain!
 GIGC_Chunk_Run: Running for in-PET grid #           1
 GIGC_Chunk_Run: Received new grid IM, JM, LM =          15           9
          49
 =================================================
 W R F - G C   T I M E R S
    Domain           1 (Units: s)
 =================================================
  => Coupler Component                       1.904
   -- Physics & Parameterization             0.483
   -- Diagnostics Out                        0.000
  => GEOS-Chem Column                      183.050
  ===> Total Chemistry                     184.954
  => WRF                                   994.770
  ===> Total WRF-GC                       1179.724
 max optd  1.9364301E+31
 max taucldi  5.7106064E-07
 max taucldw  1.4569705E-06
 Switching is not necessary as we are already
 in the right domain!
 GIGC_Chunk_Run: Running for in-PET grid #           1
 GIGC_Chunk_Run: Received new grid IM, JM, LM =          15           9
          49
 =================================================
 W R F - G C   T I M E R S
    Domain           1 (Units: s)
 =================================================
  => Coupler Component                       1.939
   -- Physics & Parameterization             0.492
   -- Diagnostics Out                        0.000
  => GEOS-Chem Column                      184.106
  ===> Total Chemistry                     186.045
  => WRF                                  1012.912
  ===> Total WRF-GC                       1198.957
 max optd  1.9364301E+31
 max taucldi  5.6888018E-07
 max taucldw  1.4554927E-06
 Switching is not necessary as we are already
 in the right domain!
 GIGC_Chunk_Run: Running for in-PET grid #           1
 GIGC_Chunk_Run: Received new grid IM, JM, LM =          15           9
          49
 =================================================
 W R F - G C   T I M E R S
    Domain           1 (Units: s)
 =================================================
  => Coupler Component                       1.973
   -- Physics & Parameterization             0.501
   -- Diagnostics Out                        0.000
  => GEOS-Chem Column                      185.173
  ===> Total Chemistry                     187.146
  => WRF                                  1031.102
  ===> Total WRF-GC                       1218.247
 max optd  1.9364301E+31
 max taucldi  5.6610867E-07
 max taucldw  1.4509203E-06
 Switching is not necessary as we are already
 in the right domain!
 GIGC_Chunk_Run: Running for in-PET grid #           1
 GIGC_Chunk_Run: Received new grid IM, JM, LM =          15           9
          49
 =================================================
 W R F - G C   T I M E R S
    Domain           1 (Units: s)
 =================================================
  => Coupler Component                       2.008
   -- Physics & Parameterization             0.510
   -- Diagnostics Out                        0.000
  => GEOS-Chem Column                      186.235
  ===> Total Chemistry                     188.243
  => WRF                                  1049.203
  ===> Total WRF-GC                       1237.447
 max optd  1.9364301E+31
 max taucldi  5.6303327E-07
 max taucldw  1.4444413E-06
 Switching is not necessary as we are already
 in the right domain!
 GIGC_Chunk_Run: Running for in-PET grid #           1
 GIGC_Chunk_Run: Received new grid IM, JM, LM =          15           9
          49
 =================================================
 W R F - G C   T I M E R S
    Domain           1 (Units: s)
 =================================================
  => Coupler Component                       2.044
   -- Physics & Parameterization             0.519
   -- Diagnostics Out                        0.000
  => GEOS-Chem Column                      187.293
  ===> Total Chemistry                     189.337
  => WRF                                  1067.340
  ===> Total WRF-GC                       1256.678
 max optd  1.9364301E+31
 max taucldi  5.6011459E-07
 max taucldw  1.4366336E-06
 Switching is not necessary as we are already
 in the right domain!
 GIGC_Chunk_Run: Running for in-PET grid #           1
 GIGC_Chunk_Run: Received new grid IM, JM, LM =          15           9
          49
 =================================================
 W R F - G C   T I M E R S
    Domain           1 (Units: s)
 =================================================
  => Coupler Component                       2.080
   -- Physics & Parameterization             0.528
   -- Diagnostics Out                        0.000
  => GEOS-Chem Column                      188.353
  ===> Total Chemistry                     190.433
  => WRF                                  1085.466
  ===> Total WRF-GC                       1275.899
 max optd  1.9364301E+31
 max taucldi  5.5717527E-07
 max taucldw  1.4272460E-06
 Switching is not necessary as we are already
 in the right domain!
 GIGC_Chunk_Run: Running for in-PET grid #           1
 GIGC_Chunk_Run: Received new grid IM, JM, LM =          15           9
          49
 =================================================
 W R F - G C   T I M E R S
    Domain           1 (Units: s)
 =================================================
  => Coupler Component                       2.113
   -- Physics & Parameterization             0.537
   -- Diagnostics Out                        0.000
  => GEOS-Chem Column                      189.405
  ===> Total Chemistry                     191.518
  => WRF                                  1103.552
  ===> Total WRF-GC                       1295.070
 max optd  1.9364301E+31
 max taucldi  5.5400187E-07
 max taucldw  1.4157187E-06
 Switching is not necessary as we are already
 in the right domain!
 GIGC_Chunk_Run: Running for in-PET grid #           1
 GIGC_Chunk_Run: Received new grid IM, JM, LM =          15           9
          49
 =================================================
 W R F - G C   T I M E R S
    Domain           1 (Units: s)
 =================================================
  => Coupler Component                       2.149
   -- Physics & Parameterization             0.546
   -- Diagnostics Out                        0.000
  => GEOS-Chem Column                      190.460
  ===> Total Chemistry                     192.609
  => WRF                                  1121.621
  ===> Total WRF-GC                       1314.230
 HOURLY EMISSIONS UPDATE TIME    18000.0       0.0
mediation_integrate: med_read_wrf_chem_emissions: Read emissions for time 2018-01-01_05:00:00
 max optd  1.9364301E+31
 max taucldi  5.4994882E-07
 max taucldw  1.4022709E-06
 Switching is not necessary as we are already
 in the right domain!
 GIGC_Chunk_Run: Running for in-PET grid #           1
 GIGC_Chunk_Run: Received new grid IM, JM, LM =          15           9
          49
 =================================================
 W R F - G C   T I M E R S
    Domain           1 (Units: s)
 =================================================
  => Coupler Component                       2.185
   -- Physics & Parameterization             0.555
   -- Diagnostics Out                        0.000
  => GEOS-Chem Column                      191.522
  ===> Total Chemistry                     193.707
  => WRF                                  1139.794
  ===> Total WRF-GC                       1333.501
 max optd  1.9364301E+31
 max taucldi  5.4500026E-07
 max taucldw  1.3865922E-06
 Switching is not necessary as we are already
 in the right domain!
 GIGC_Chunk_Run: Running for in-PET grid #           1
 GIGC_Chunk_Run: Received new grid IM, JM, LM =          15           9
          49
 =================================================
 W R F - G C   T I M E R S
    Domain           1 (Units: s)
 =================================================
  => Coupler Component                       2.220
   -- Physics & Parameterization             0.564
   -- Diagnostics Out                        0.000
  => GEOS-Chem Column                      192.591
  ===> Total Chemistry                     194.811
  => WRF                                  1157.882
  ===> Total WRF-GC                       1352.693
 max optd  1.9364301E+31
 max taucldi  5.3966812E-07
 max taucldw  1.3672129E-06
 Switching is not necessary as we are already
 in the right domain!
 GIGC_Chunk_Run: Running for in-PET grid #           1
 GIGC_Chunk_Run: Received new grid IM, JM, LM =          15           9
          49
 =================================================
 W R F - G C   T I M E R S
    Domain           1 (Units: s)
 =================================================
  => Coupler Component                       2.257
   -- Physics & Parameterization             0.573
   -- Diagnostics Out                        0.000
  => GEOS-Chem Column                      193.658
  ===> Total Chemistry                     195.915
  => WRF                                  1175.982
  ===> Total WRF-GC                       1371.897
 max optd  1.9364301E+31
 max taucldi  5.3938868E-07
 max taucldw  1.3429716E-06
 Switching is not necessary as we are already
 in the right domain!
 GIGC_Chunk_Run: Running for in-PET grid #           1
 GIGC_Chunk_Run: Received new grid IM, JM, LM =          15           9
          49
 =================================================
 W R F - G C   T I M E R S
    Domain           1 (Units: s)
 =================================================
  => Coupler Component                       2.294
   -- Physics & Parameterization             0.582
   -- Diagnostics Out                        0.000
  => GEOS-Chem Column                      194.719
  ===> Total Chemistry                     197.013
  => WRF                                  1194.104
  ===> Total WRF-GC                       1391.117
 max optd  1.9364301E+31
 max taucldi  5.4290604E-07
 max taucldw  1.3166484E-06
 Switching is not necessary as we are already
 in the right domain!
 GIGC_Chunk_Run: Running for in-PET grid #           1
 GIGC_Chunk_Run: Received new grid IM, JM, LM =          15           9
          49
 =================================================
 W R F - G C   T I M E R S
    Domain           1 (Units: s)
 =================================================
  => Coupler Component                       2.330
   -- Physics & Parameterization             0.591
   -- Diagnostics Out                        0.000
  => GEOS-Chem Column                      195.783
  ===> Total Chemistry                     198.113
  => WRF                                  1212.277
  ===> Total WRF-GC                       1410.390
 max optd  1.9364301E+31
 max taucldi  5.4695568E-07
 max taucldw  1.3081007E-06
 Switching is not necessary as we are already
 in the right domain!
 GIGC_Chunk_Run: Running for in-PET grid #           1
 GIGC_Chunk_Run: Received new grid IM, JM, LM =          15           9
          49
 =================================================
 W R F - G C   T I M E R S
    Domain           1 (Units: s)
 =================================================
  => Coupler Component                       2.363
   -- Physics & Parameterization             0.599
   -- Diagnostics Out                        0.000
  => GEOS-Chem Column                      196.854
  ===> Total Chemistry                     199.217
  => WRF                                  1230.345
  ===> Total WRF-GC                       1429.562
 max optd  1.9364301E+31
 max taucldi  5.5129618E-07
 max taucldw  1.2943401E-06
 Switching is not necessary as we are already
 in the right domain!
 GIGC_Chunk_Run: Running for in-PET grid #           1
 GIGC_Chunk_Run: Received new grid IM, JM, LM =          15           9
          49
 =================================================
 W R F - G C   T I M E R S
    Domain           1 (Units: s)
 =================================================
  => Coupler Component                       2.400
   -- Physics & Parameterization             0.608
   -- Diagnostics Out                        0.000
  => GEOS-Chem Column                      197.928
  ===> Total Chemistry                     200.328
  => WRF                                  1248.541
  ===> Total WRF-GC                       1448.868
 max optd  1.9364301E+31
 max taucldi  5.5529682E-07
 max taucldw  1.2765478E-06
 Switching is not necessary as we are already
 in the right domain!
 GIGC_Chunk_Run: Running for in-PET grid #           1
 GIGC_Chunk_Run: Received new grid IM, JM, LM =          15           9
          49
 =================================================
 W R F - G C   T I M E R S
    Domain           1 (Units: s)
 =================================================
  => Coupler Component                       2.436
   -- Physics & Parameterization             0.617
   -- Diagnostics Out                        0.000
  => GEOS-Chem Column                      198.983
  ===> Total Chemistry                     201.419
  => WRF                                  1266.626
  ===> Total WRF-GC                       1468.045
 max optd  1.9364301E+31
 max taucldi  5.5867781E-07
 max taucldw  1.2559078E-06
 Switching is not necessary as we are already
 in the right domain!
 GIGC_Chunk_Run: Running for in-PET grid #           1
 GIGC_Chunk_Run: Received new grid IM, JM, LM =          15           9
          49
 =================================================
 W R F - G C   T I M E R S
    Domain           1 (Units: s)
 =================================================
  => Coupler Component                       2.472
   -- Physics & Parameterization             0.626
   -- Diagnostics Out                        0.000
  => GEOS-Chem Column                      200.052
  ===> Total Chemistry                     202.524
  => WRF                                  1284.799
  ===> Total WRF-GC                       1487.323
 max optd  1.9364301E+31
 max taucldi  5.6121172E-07
 max taucldw  1.2334225E-06
 Switching is not necessary as we are already
 in the right domain!
 GIGC_Chunk_Run: Running for in-PET grid #           1
 GIGC_Chunk_Run: Received new grid IM, JM, LM =          15           9
          49
 =================================================
 W R F - G C   T I M E R S
    Domain           1 (Units: s)
 =================================================
  => Coupler Component                       2.509
   -- Physics & Parameterization             0.635
   -- Diagnostics Out                        0.000
  => GEOS-Chem Column                      201.119
  ===> Total Chemistry                     203.628
  => WRF                                  1303.189
  ===> Total WRF-GC                       1506.818
 max optd  1.9364301E+31
 max taucldi  5.6278060E-07
 max taucldw  1.2093763E-06
 Switching is not necessary as we are already
 in the right domain!
 GIGC_Chunk_Run: Running for in-PET grid #           1
 GIGC_Chunk_Run: Received new grid IM, JM, LM =          15           9
          49
 =================================================
 W R F - G C   T I M E R S
    Domain           1 (Units: s)
 =================================================
  => Coupler Component                       2.545
   -- Physics & Parameterization             0.645
   -- Diagnostics Out                        0.000
  => GEOS-Chem Column                      202.182
  ===> Total Chemistry                     204.726
  => WRF                                  1321.297
  ===> Total WRF-GC                       1526.023
 max optd  1.9364301E+31
 max taucldi  5.6349171E-07
 max taucldw  1.1845414E-06
 Switching is not necessary as we are already
 in the right domain!
 GIGC_Chunk_Run: Running for in-PET grid #           1
 GIGC_Chunk_Run: Received new grid IM, JM, LM =          15           9
          49
 =================================================
 W R F - G C   T I M E R S
    Domain           1 (Units: s)
 =================================================
  => Coupler Component                       2.575
   -- Physics & Parameterization             0.654
   -- Diagnostics Out                        0.000
  => GEOS-Chem Column                      203.250
  ===> Total Chemistry                     205.825
  => WRF                                  1339.419
  ===> Total WRF-GC                       1545.244
 HOURLY EMISSIONS UPDATE TIME    21600.0       0.0
mediation_integrate: med_read_wrf_chem_emissions: Read emissions for time 2018-01-01_06:00:00
 max optd  1.9364301E+31
 max taucldi  5.6313394E-07
 max taucldw  1.1593339E-06
 Switching is not necessary as we are already
 in the right domain!
 GIGC_Chunk_Run: Running for in-PET grid #           1
 GIGC_Chunk_Run: Received new grid IM, JM, LM =          15           9
          49
 =================================================
 W R F - G C   T I M E R S
    Domain           1 (Units: s)
 =================================================
  => Coupler Component                       2.615
   -- Physics & Parameterization             0.663
   -- Diagnostics Out                        0.000
  => GEOS-Chem Column                      204.344
  ===> Total Chemistry                     206.959
  => WRF                                  1798.088
  ===> Total WRF-GC                       2005.047
 max optd  1.9364301E+31
 max taucldi  5.6159502E-07
 max taucldw  1.1344565E-06
 Switching is not necessary as we are already
 in the right domain!
 GIGC_Chunk_Run: Running for in-PET grid #           1
 GIGC_Chunk_Run: Received new grid IM, JM, LM =          15           9
          49
 =================================================
 W R F - G C   T I M E R S
    Domain           1 (Units: s)
 =================================================
  => Coupler Component                       2.664
   -- Physics & Parameterization             0.673
   -- Diagnostics Out                        0.000
  => GEOS-Chem Column                      205.428
  ===> Total Chemistry                     208.092
  => WRF                                  1816.180
  ===> Total WRF-GC                       2024.272
 max optd  1.9364301E+31
 max taucldi  5.5946686E-07
 max taucldw  1.1103241E-06
 Switching is not necessary as we are already
 in the right domain!
 GIGC_Chunk_Run: Running for in-PET grid #           1
 GIGC_Chunk_Run: Received new grid IM, JM, LM =          15           9
          49
 =================================================
 W R F - G C   T I M E R S
    Domain           1 (Units: s)
 =================================================
  => Coupler Component                       2.704
   -- Physics & Parameterization             0.683
   -- Diagnostics Out                        0.000
  => GEOS-Chem Column                      206.482
  ===> Total Chemistry                     209.186
  => WRF                                  1834.427
  ===> Total WRF-GC                       2043.613
 max optd  1.9364301E+31
 max taucldi  5.5724371E-07
 max taucldw  1.0864229E-06
 Switching is not necessary as we are already
 in the right domain!
 GIGC_Chunk_Run: Running for in-PET grid #           1
 GIGC_Chunk_Run: Received new grid IM, JM, LM =          15           9
          49
 =================================================
 W R F - G C   T I M E R S
    Domain           1 (Units: s)
 =================================================
  => Coupler Component                       2.741
[...]
  => GEOS-Chem Column                      254.061
  ===> Total Chemistry                     258.432
  => WRF                                  2652.448
  ===> Total WRF-GC                       2910.880
 HOURLY EMISSIONS UPDATE TIME    36000.0       0.0
mediation_integrate: med_read_wrf_chem_emissions: Read emissions for time 2018-01-01_10:00:00
 max optd  1.9364301E+31
 max taucldi  5.1525825E-07
 max taucldw  1.3428418E-06
 Switching is not necessary as we are already
 in the right domain!
 GIGC_Chunk_Run: Running for in-PET grid #           1
 GIGC_Chunk_Run: Received new grid IM, JM, LM =          15           9
          49
 =================================================
 W R F - G C   T I M E R S
    Domain           1 (Units: s)
 =================================================
  => Coupler Component                       4.405
   -- Physics & Parameterization             1.098
   -- Diagnostics Out                        0.000
  => GEOS-Chem Column                      255.116
  ===> Total Chemistry                     259.521
  => WRF                                  2670.698
  ===> Total WRF-GC                       2930.218
 max optd  1.9364301E+31
 max taucldi  5.1605952E-07
 max taucldw  1.3562593E-06
 Switching is not necessary as we are already
 in the right domain!
 GIGC_Chunk_Run: Running for in-PET grid #           1
 GIGC_Chunk_Run: Received new grid IM, JM, LM =          15           9
          49
 =================================================
 W R F - G C   T I M E R S
    Domain           1 (Units: s)
 =================================================
  => Coupler Component                       4.442
   -- Physics & Parameterization             1.108
   -- Diagnostics Out                        0.000
  => GEOS-Chem Column                      256.170
  ===> Total Chemistry                     260.612
  => WRF                                  2688.852
  ===> Total WRF-GC                       2949.464
 max optd  1.9364301E+31
 max taucldi  5.1668337E-07
 max taucldw  1.3666580E-06
 Switching is not necessary as we are already
 in the right domain!
 GIGC_Chunk_Run: Running for in-PET grid #           1
 GIGC_Chunk_Run: Received new grid IM, JM, LM =          15           9
          49
 =================================================
 W R F - G C   T I M E R S
    Domain           1 (Units: s)
 =================================================
  => Coupler Component                       4.478
   -- Physics & Parameterization             1.117
   -- Diagnostics Out                        0.000
  => GEOS-Chem Column                      257.223
  ===> Total Chemistry                     261.701
  => WRF                                  2706.995
  ===> Total WRF-GC                       2968.697
 max optd  1.9364301E+31
 max taucldi  5.1768797E-07
 max taucldw  1.3749053E-06
 Switching is not necessary as we are already
 in the right domain!
 GIGC_Chunk_Run: Running for in-PET grid #           1
 GIGC_Chunk_Run: Received new grid IM, JM, LM =          15           9
          49
 =================================================
 W R F - G C   T I M E R S
    Domain           1 (Units: s)
 =================================================
  => Coupler Component                       4.516
   -- Physics & Parameterization             1.125
   -- Diagnostics Out                        0.000
  => GEOS-Chem Column                      258.286
  ===> Total Chemistry                     262.803
  => WRF                                  2725.239
  ===> Total WRF-GC                       2988.042
 max optd  1.9364301E+31
 max taucldi  5.1911837E-07
 max taucldw  1.3822370E-06
 Switching is not necessary as we are already
 in the right domain!
 GIGC_Chunk_Run: Running for in-PET grid #           1
 GIGC_Chunk_Run: Received new grid IM, JM, LM =          15           9
          49
 =================================================
 W R F - G C   T I M E R S
    Domain           1 (Units: s)
 =================================================
  => Coupler Component                       4.554
   -- Physics & Parameterization             1.135
   -- Diagnostics Out                        0.000
  => GEOS-Chem Column                      259.341
  ===> Total Chemistry                     263.896
  => WRF                                  2743.414
  ===> Total WRF-GC                       3007.309
 max optd  1.9364301E+31
 max taucldi  5.2078070E-07
 max taucldw  1.3901328E-06
 Switching is not necessary as we are already
 in the right domain!
 GIGC_Chunk_Run: Running for in-PET grid #           1
 GIGC_Chunk_Run: Received new grid IM, JM, LM =          15           9
          49
 =================================================
 W R F - G C   T I M E R S
    Domain           1 (Units: s)
 =================================================
  => Coupler Component                       4.590
   -- Physics & Parameterization             1.143
   -- Diagnostics Out                        0.000
  => GEOS-Chem Column                      260.392
  ===> Total Chemistry                     264.982
  => WRF                                  2761.514
  ===> Total WRF-GC                       3026.496
 max optd  1.9364301E+31
 max taucldi  5.2224277E-07
 max taucldw  1.4005886E-06
 Switching is not necessary as we are already
 in the right domain!
 GIGC_Chunk_Run: Running for in-PET grid #           1
 GIGC_Chunk_Run: Received new grid IM, JM, LM =          15           9
          49
 =================================================
 W R F - G C   T I M E R S
    Domain           1 (Units: s)
 =================================================
  => Coupler Component                       4.628
   -- Physics & Parameterization             1.153
   -- Diagnostics Out                        0.000
  => GEOS-Chem Column                      261.446
  ===> Total Chemistry                     266.074
  => WRF                                  2779.707
  ===> Total WRF-GC                       3045.781
 max optd  1.9364301E+31
 max taucldi  5.2318103E-07
 max taucldw  1.4231490E-06
 Switching is not necessary as we are already
 in the right domain!
 GIGC_Chunk_Run: Running for in-PET grid #           1
 GIGC_Chunk_Run: Received new grid IM, JM, LM =          15           9
          49
 =================================================
 W R F - G C   T I M E R S
    Domain           1 (Units: s)
 =================================================
  => Coupler Component                       4.663
   -- Physics & Parameterization             1.162
   -- Diagnostics Out                        0.000
  => GEOS-Chem Column                      262.498
  ===> Total Chemistry                     267.161
  => WRF                                  2797.873
  ===> Total WRF-GC                       3065.034
 max optd  1.9364301E+31
 max taucldi  5.2349878E-07
 max taucldw  1.4463330E-06
 Switching is not necessary as we are already
 in the right domain!
 GIGC_Chunk_Run: Running for in-PET grid #           1
 GIGC_Chunk_Run: Received new grid IM, JM, LM =          15           9
          49
 =================================================
 W R F - G C   T I M E R S
    Domain           1 (Units: s)
 =================================================
  => Coupler Component                       4.699
   -- Physics & Parameterization             1.170
   -- Diagnostics Out                        0.000
  => GEOS-Chem Column                      263.553
  ===> Total Chemistry                     268.253
  => WRF                                  2815.998
  ===> Total WRF-GC                       3084.251
 max optd  1.9364301E+31
 max taucldi  5.2318507E-07
 max taucldw  1.4675625E-06
 Switching is not necessary as we are already
 in the right domain!
 GIGC_Chunk_Run: Running for in-PET grid #           1
 GIGC_Chunk_Run: Received new grid IM, JM, LM =          15           9
          49
 =================================================
 W R F - G C   T I M E R S
    Domain           1 (Units: s)
 =================================================
  => Coupler Component                       4.736
   -- Physics & Parameterization             1.179
   -- Diagnostics Out                        0.000
  => GEOS-Chem Column                      264.605
  ===> Total Chemistry                     269.340
  => WRF                                  2834.231
  ===> Total WRF-GC                       3103.571
 max optd  1.9364301E+31
 max taucldi  5.2237255E-07
 max taucldw  1.4863591E-06
 Switching is not necessary as we are already
 in the right domain!
 GIGC_Chunk_Run: Running for in-PET grid #           1
 GIGC_Chunk_Run: Received new grid IM, JM, LM =          15           9
          49
 =================================================
 W R F - G C   T I M E R S
    Domain           1 (Units: s)
 =================================================
  => Coupler Component                       4.774
   -- Physics & Parameterization             1.188
   -- Diagnostics Out                        0.000
  => GEOS-Chem Column                      265.657
  ===> Total Chemistry                     270.430
  => WRF                                  2852.388
  ===> Total WRF-GC                       3122.818
 max optd  1.9364301E+31
 max taucldi  5.2132566E-07
 max taucldw  1.5030430E-06
 Switching is not necessary as we are already
 in the right domain!
 GIGC_Chunk_Run: Running for in-PET grid #           1
 GIGC_Chunk_Run: Received new grid IM, JM, LM =          15           9
          49
 =================================================
 W R F - G C   T I M E R S
    Domain           1 (Units: s)
 =================================================
  => Coupler Component                       4.815
   -- Physics & Parameterization             1.197
   -- Diagnostics Out                        0.000
  => GEOS-Chem Column                      266.716
  ===> Total Chemistry                     271.531
  => WRF                                  2870.589
  ===> Total WRF-GC                       3142.121
 HOURLY EMISSIONS UPDATE TIME    39600.0       0.0
mediation_integrate: med_read_wrf_chem_emissions: Read emissions for time 2018-01-01_11:00:00
 max optd  1.9364301E+31
 max taucldi  5.2029469E-07
 max taucldw  1.5282160E-06
 Switching is not necessary as we are already
 in the right domain!
 GIGC_Chunk_Run: Running for in-PET grid #           1
 GIGC_Chunk_Run: Received new grid IM, JM, LM =          15           9
          49
 =================================================
 W R F - G C   T I M E R S
    Domain           1 (Units: s)
 =================================================
  => Coupler Component                       4.851
   -- Physics & Parameterization             1.206
   -- Diagnostics Out                        0.000
  => GEOS-Chem Column                      267.781
  ===> Total Chemistry                     272.632
  => WRF                                  2888.772
  ===> Total WRF-GC                       3161.403
 max optd  1.9364301E+31
 max taucldi  5.1957420E-07
 max taucldw  1.5534001E-06
 Switching is not necessary as we are already
 in the right domain!
 GIGC_Chunk_Run: Running for in-PET grid #           1
 GIGC_Chunk_Run: Received new grid IM, JM, LM =          15           9
          49
 =================================================
 W R F - G C   T I M E R S
    Domain           1 (Units: s)
 =================================================
  => Coupler Component                       4.885
   -- Physics & Parameterization             1.215
   -- Diagnostics Out                        0.000
  => GEOS-Chem Column                      268.838
  ===> Total Chemistry                     273.723
  => WRF                                  2906.896
  ===> Total WRF-GC                       3180.620
 max optd  1.9364301E+31
 max taucldi  5.1928538E-07
 max taucldw  1.5776757E-06
 Switching is not necessary as we are already
 in the right domain!
 GIGC_Chunk_Run: Running for in-PET grid #           1
 GIGC_Chunk_Run: Received new grid IM, JM, LM =          15           9
          49
 =================================================
 W R F - G C   T I M E R S
    Domain           1 (Units: s)
 =================================================
  => Coupler Component                       4.923
   -- Physics & Parameterization             1.224
   -- Diagnostics Out                        0.000
  => GEOS-Chem Column                      269.895
  ===> Total Chemistry                     274.818
  => WRF                                  2925.132
  ===> Total WRF-GC                       3199.950
 max optd  1.9364301E+31
 max taucldi  5.1947649E-07
 max taucldw  1.6010375E-06
 Switching is not necessary as we are already
 in the right domain!
 GIGC_Chunk_Run: Running for in-PET grid #           1
 GIGC_Chunk_Run: Received new grid IM, JM, LM =          15           9
          49
 =================================================
 W R F - G C   T I M E R S
    Domain           1 (Units: s)
 =================================================
  => Coupler Component                       4.960
   -- Physics & Parameterization             1.233
   -- Diagnostics Out                        0.000
  => GEOS-Chem Column                      270.942
  ===> Total Chemistry                     275.901
  => WRF                                  2943.413
  ===> Total WRF-GC                       3219.315
 max optd  1.9364301E+31
 max taucldi  5.2012473E-07
 max taucldw  1.6234438E-06
 Switching is not necessary as we are already
 in the right domain!
 GIGC_Chunk_Run: Running for in-PET grid #           1
 GIGC_Chunk_Run: Received new grid IM, JM, LM =          15           9
          49
 =================================================
 W R F - G C   T I M E R S
    Domain           1 (Units: s)
 =================================================
  => Coupler Component                       4.999
   -- Physics & Parameterization             1.241
   -- Diagnostics Out                        0.000
  => GEOS-Chem Column                      271.996
  ===> Total Chemistry                     276.994
  => WRF                                  2961.840
  ===> Total WRF-GC                       3238.834
 max optd  1.9364301E+31
 max taucldi  5.2100859E-07
 max taucldw  1.6453723E-06
 Switching is not necessary as we are already
 in the right domain!
 GIGC_Chunk_Run: Running for in-PET grid #           1
 GIGC_Chunk_Run: Received new grid IM, JM, LM =          15           9
          49
 =================================================
 W R F - G C   T I M E R S
    Domain           1 (Units: s)
 =================================================
  => Coupler Component                       5.035
   -- Physics & Parameterization             1.250
   -- Diagnostics Out                        0.000
  => GEOS-Chem Column                      273.062
  ===> Total Chemistry                     278.097
  => WRF                                  2980.245
  ===> Total WRF-GC                       3258.342
 max optd  1.9364301E+31
 max taucldi  5.2148778E-07
 max taucldw  1.6673505E-06
 Switching is not necessary as we are already
 in the right domain!
 GIGC_Chunk_Run: Running for in-PET grid #           1
 GIGC_Chunk_Run: Received new grid IM, JM, LM =          15           9
          49
 =================================================
 W R F - G C   T I M E R S
    Domain           1 (Units: s)
 =================================================
  => Coupler Component                       5.073
   -- Physics & Parameterization             1.259
   -- Diagnostics Out                        0.000
  => GEOS-Chem Column                      274.117
  ===> Total Chemistry                     279.190
  => WRF                                  2998.776
  ===> Total WRF-GC                       3277.967
 max optd  1.9364301E+31
 max taucldi  5.2111062E-07
 max taucldw  1.6899228E-06
 Switching is not necessary as we are already
 in the right domain!
 GIGC_Chunk_Run: Running for in-PET grid #           1
 GIGC_Chunk_Run: Received new grid IM, JM, LM =          15           9
          49
 =================================================
 W R F - G C   T I M E R S
    Domain           1 (Units: s)
 =================================================
  => Coupler Component                       5.107
   -- Physics & Parameterization             1.268
   -- Diagnostics Out                        0.000
  => GEOS-Chem Column                      275.185
  ===> Total Chemistry                     280.291
  => WRF                                  3017.337
  ===> Total WRF-GC                       3297.629
 max optd  1.9364301E+31
 max taucldi  5.1959569E-07
 max taucldw  1.7135942E-06
 Switching is not necessary as we are already
 in the right domain!
 GIGC_Chunk_Run: Running for in-PET grid #           1
 GIGC_Chunk_Run: Received new grid IM, JM, LM =          15           9
          49
 =================================================
 W R F - G C   T I M E R S
    Domain           1 (Units: s)
 =================================================
  => Coupler Component                       5.144
   -- Physics & Parameterization             1.277
   -- Diagnostics Out                        0.000
  => GEOS-Chem Column                      276.250
  ===> Total Chemistry                     281.393
  => WRF                                  3036.021
  ===> Total WRF-GC                       3317.414
 max optd  1.9364301E+31
 max taucldi  5.1680740E-07
 max taucldw  1.7382201E-06
 Switching is not necessary as we are already
 in the right domain!
 GIGC_Chunk_Run: Running for in-PET grid #           1
 GIGC_Chunk_Run: Received new grid IM, JM, LM =          15           9
          49
 =================================================
 W R F - G C   T I M E R S
    Domain           1 (Units: s)
 =================================================
  => Coupler Component                       5.184
   -- Physics & Parameterization             1.286
   -- Diagnostics Out                        0.000
  => GEOS-Chem Column                      277.296
  ===> Total Chemistry                     282.481
  => WRF                                  3054.901
  ===> Total WRF-GC                       3337.381
 max optd  1.9364301E+31
 max taucldi  5.1266363E-07
 max taucldw  1.7629700E-06
 Switching is not necessary as we are already
 in the right domain!
 GIGC_Chunk_Run: Running for in-PET grid #           1
 GIGC_Chunk_Run: Received new grid IM, JM, LM =          15           9
          49
 =================================================
 W R F - G C   T I M E R S
    Domain           1 (Units: s)
 =================================================
  => Coupler Component                       5.223
   -- Physics & Parameterization             1.295
   -- Diagnostics Out                        0.000
  => GEOS-Chem Column                      278.352
  ===> Total Chemistry                     283.575
  => WRF                                  3073.738
  ===> Total WRF-GC                       3357.313
 max optd  1.9364301E+31
 max taucldi  5.0719200E-07
 max taucldw  1.7870791E-06
 Switching is not necessary as we are already
 in the right domain!
 GIGC_Chunk_Run: Running for in-PET grid #           1
 GIGC_Chunk_Run: Received new grid IM, JM, LM =          15           9
          49
 =================================================
 W R F - G C   T I M E R S
    Domain           1 (Units: s)
 =================================================
  => Coupler Component                       5.256
   -- Physics & Parameterization             1.304
   -- Diagnostics Out                        0.000
  => GEOS-Chem Column                      279.400
  ===> Total Chemistry                     284.656
  => WRF                                  3092.483
  ===> Total WRF-GC                       3377.139
d01 2018-01-01_12:00:00 wrf: SUCCESS COMPLETE WRF
