taskid: 2576 hostname: ip-172-31-8-235
Quilting with   1 groups of   0 I/O tasks.
 Ntasks in X           64 , ntasks in Y           72
--- WARNING: traj_opt is zero, but num_traj is not zero; setting num_traj to zero.
--- NOTE: sst_update is 0, setting io_form_auxinput4 = 0 and auxinput4_interval = 0 for all domains
--- NOTE: grid_fdda is 0 for domain      1, setting gfdda interval and ending time to 0 for that domain.
--- NOTE: both grid_sfdda and pxlsm_soil_nudge are 0 for domain      1, setting sgfdda interval and ending time to 0 for that domain.
--- NOTE: obs_nudge_opt is 0 for domain      1, setting obs nudging interval and ending time to 0 for that domain.
--- NOTE: bl_pbl_physics /= 4, implies mfshconv must be 0, resetting
Need MYNN PBL for icloud_bl = 1, resetting to 0
*************************************
No physics suite selected.
Physics options will be used directly from the namelist.
*************************************
--- NOTE: RRTMG radiation is in use, setting:  levsiz=59, alevsiz=12, no_src_types=6
--- NOTE: num_soil_layers has been set to      4
WRF V3.9.1.1 MODEL
 *************************************
 Parent domain
 ids,ide,jds,jde            1         950           1         650
 ims,ime,jms,jme          234         262         355         377
 ips,ipe,jps,jpe          241         255         362         370
 *************************************
DYNAMICS OPTION: Eulerian Mass Coordinate
   alloc_space_field: domain            1 ,              203623800  bytes allocated
  med_initialdata_input: calling input_input
Max map factor in domain 1 =  1.40. Scale the dt in the model accordingly.
INPUT LandUse = "USGS"
 LANDUSE TYPE = "USGS" FOUND          33  CATEGORIES           2  SEASONS WATER CATEGORY =           16  SNOW CATEGORY =           24
INITIALIZE THREE Noah LSM RELATED TABLES
*****************************************************************
  __          _______  ______       _____  _____ _    _ _____
  \ \        / /  __ \|  ____|     / ____|/ ____| |  | |  __ \
   \ \  /\  / /| |__) | |__ ______| |  __| |    | |__| | |__) |
    \ \/  \/ / |  _  /|  __|______| | |_ | |    |  __  |  ___/
     \  /\  /  | | \ \| |         | |__| | |____| |  | | |
      \/  \/   |_|  \_\_|          \_____|\_____|_|  |_|_|
*****************************************************************
         WRF-GC MODEL, VERSION 1811.11 - WRF BINDINGS
 For errors, suggestions & feedback email linhaipeng@pku.edu.cn
*****************************************************************
    This is domain            1
 ### GIGC_Stateful_Mod: Root CPU, after READ_INPUT_FILE
  Linoz Data:  O3 climatology :                  z*=10, 12, ..., 58                             2.700E-08 1.083E-05
  Linoz Data:  Temperature climatology :         z*=10, 12, ..., 58                             1.859E+02 2.904E+02
  Linoz Data:  Column O3 above box climalology : z*=10, 12, ..., 58                             7.538E-02 3.770E+02
  Linoz Data:  P-L O3 climatology (mr/s):        z*=10, 12, ..., 58                            -1.590E-10 2.835E-11
  Linoz Data:  d(P-L)/dO3 (1/s) :                z*=10, 12, ..., 58                            -8.386E-04 7.556E-09
  Linoz Data:  d(P-L)/dT (mr/K) :                z*=10, 12, ..., 58                            -5.742E-12 4.615E-14
  Linoz Data:  d(P-L)/d(column O3) (mr/DU) :     z*=10, 12, ..., 58                            -1.921E-12 5.038E-10
 ### GIGC_Stateful_Mod: Root CPU, after LINOZ_READ
 %%%%%%%%% GIGC IN-PET GRID SWITCHING HACKS %%%%%%%%%
     (Not very) Proudly brought to you by hplin      
 Some debug information:
 ID:           1
 IM, JM, LM:          15           9          49  will be set as PAR
 Allocs: CMN T GC F
 RC at entry-point:           0
 %%%%%%%%%%%%%%%%%%%%%%%%%%%%%%%%%%%%%%%%%%%%%%%%%%%%
 No need to switch HcoState for ID           1
 Exit RC:            0
 %%%%%%%%%    FINISHED GIGC_Switch_Dims    %%%%%%%%%
 GIGC_Chunk_Init: Received new grid IM, JM, LM =          15           9
          49
     ### GIGC_INIT_SIMULATION: after Input_Opt% setups
     ### GIGC_INIT_SIMULATION: after GC_Init_All
     ### GIGC_INIT_SIMULATION: after GC_Init_Extra
     ### GIGC_INIT_SIMULATION: after INIT_FJX
 # GIGC_CHUNK_MOD: after SV save, ID =           1
 WRFGC chemics_init: Following information regarding Input_Opt% (for all doms)
 After domain           1
 HPC:  T
 LPRT:  F
 DoConv:  T
 DoDryDep:  T
 DoEmis:  T
 DoChem:  T
 DoTurb:  T
 DoWetDep:  T

 tropopause_init: DONE intialized domain            1

 mediation_integrate: med_read_wrf_chem_emissions: Open file wrfchemi_00z_d01
 HOURLY EMISSIONS UPDATE TIME        0.0       0.0
mediation_integrate: med_read_wrf_chem_emissions: Read emissions for time 2018-01-01_00:00:00
open_aux_u : error opening wrffirechemi_d01_2018-01-01_00:00:00 for reading. 100
open_aux_u : error opening wrfchemi_gocart_bg_d01 for reading. 100
d01 2018-01-01_00:00:00 Input data processed for aux input   8 for domain   1
open_aux_u : error opening wrfchemv_d01 for reading. 100
 Tile Strategy is not specified. Assuming 1D-Y
WRF TILE   1 IS    241 IE    255 JS    362 JE    370
WRF NUMBER OF TILES =   1
 max optd  3.3547268E+12
 max taucldi  0.0000000E+00
 max taucldw  0.0000000E+00
 =================================================
 W R F - G C   T I M E R S
    Domain           1 (Units: s)
 =================================================
  => Coupler Component                       0.029
   -- Physics & Parameterization             0.001
   -- Diagnostics Out                        0.000
  => GEOS-Chem Column                        0.000
  ===> Total Chemistry                       0.029
  => WRF                                     0.000
  ===> Total WRF-GC                          0.029
 max optd  3.3547268E+12
 max taucldi  1.0000006E-14
 max taucldw  1.0000006E-14
 %%%%%%%%% GIGC IN-PET GRID SWITCHING HACKS %%%%%%%%%
     (Not very) Proudly brought to you by hplin      
 Some debug information:
 ID:           1
 IM, JM, LM:          15           9          49  will be set as PAR
 Allocs: CMN T GC T
 RC at entry-point:           0
 %%%%%%%%%%%%%%%%%%%%%%%%%%%%%%%%%%%%%%%%%%%%%%%%%%%%
 No need to switch HcoState for ID           1
 Debug HcoState nSpc, NX, NY, NZ         163          15           9          49
 Exit RC:            0
 %%%%%%%%%    FINISHED GIGC_Switch_Dims    %%%%%%%%%
 GIGC_Chunk_Run: Running for in-PET grid #           1
 GIGC_Chunk_Run: Received new grid IM, JM, LM =          15           9
          49
HEMCO: Opening /fsx/HEMCO/BIOFUEL/v2014-07/biofuel.geos.4x5.nc
HEMCO: Opening /fsx/HEMCO/BROMINE/v2015-02/Bromocarb_Liang2010.nc
HEMCO: Opening /fsx/HEMCO/ACET/v2014-07/ACET_seawater.generic.1x1.nc
HEMCO: Opening /fsx/HEMCO/SOILNOX/v2014-07/DepReservoirDefault.nc
HEMCO: Opening /fsx/HEMCO/SOILNOX/v2014-07/soilNOx.landtype.generic.025x025.1L.nc
HEMCO: Opening /fsx/HEMCO/SOILNOX/v2014-07/soilNOx.climate.generic.05x05.nc
HEMCO: Opening /fsx/HEMCO/DUST_DEAD/v2014-07/dst_tibds.geos.4x5.nc
HEMCO: Opening /fsx/HEMCO/DUST_DEAD/v2014-07/GOCART_src_fn.geos.4x5.nc
HEMCO: Opening /fsx/HEMCO/MEGAN/v2018-05/MEGAN2.1_EF.geos.025x03125.nc
HEMCO: Opening /fsx/HEMCO/MEGAN/v2017-07/CLM4_PFT.geos.025x03125.nc
HEMCO: Opening /fsx/HEMCO/TIMEZONES/v2015-02/timezones_voronoi_1x1.nc
HEMCO: Opening /fsx/HEMCO/STRAT/v2015-01/Bry/GEOSCCM_Bry.200701.day.nc
HEMCO: Opening /fsx/HEMCO/STRAT/v2015-01/Bry/GEOSCCM_Bry.200701.night.nc
HEMCO: Opening /fsx/HEMCO/OMOC/v2018-01/OMOC.DJF.01x01.nc
HEMCO: Opening /fsx/HEMCO/OMOC/v2018-01/OMOC.MAM.01x01.nc
HEMCO: Opening /fsx/HEMCO/OMOC/v2018-01/OMOC.JJA.01x01.nc
HEMCO: Opening /fsx/HEMCO/OMOC/v2018-01/OMOC.SON.01x01.nc
HEMCO: Opening /fsx/HEMCO/AnnualScalar/v2014-07/AnnualScalar.geos.1x1.nc
HEMCO: Opening /fsx/HEMCO/EDGARv42/v2015-02/NO/EDGAR_hourly_NOxScal.nc
HEMCO: Opening /fsx/HEMCO/MASKS/v2018-09/EMEP_mask.geos.1x1.20151222.nc
HEMCO: Opening /fsx/HEMCO/MASKS/v2018-09/Canada_mask.geos.1x1.nc
HEMCO: Opening /fsx/HEMCO/MASKS/v2018-09/SE_Asia_mask.generic.1x1.nc
HEMCO: Opening /fsx/HEMCO/MASKS/v2018-09/MIX_Asia_mask.generic.025x025.nc
HEMCO: Opening /fsx/HEMCO/MASKS/v2018-09/CONUS_Mask.01x01.nc
HEMCO: Opening /fsx/HEMCO/MASKS/v2018-09/AF_LANDMASK.geos.05x0666.global.nc
HEMCO: Opening /fsx/HEMCO/MASKS/v2018-09/China_mask.generic.1x1.nc
HEMCO: Opening /fsx/HEMCO/MASKS/v2018-09/India_mask.generic.1x1.nc
HEMCO: Opening /fsx/HEMCO/AnnualScalar/v2014-07/AnnualScalar.geos.1x1.nc
HEMCO: Opening /fsx/HEMCO/NH3/v2014-07/NH3_geos.4x5.nc
HEMCO: Opening /fsx/HEMCO/NH3/v2018-04/NH3_Arctic_seabirds.nc
HEMCO: Opening /fsx/HEMCO/CEDS/v2018-08/2014/NO-em-anthro_CMIP_CEDS_2014.nc
HEMCO: Opening /fsx/HEMCO/CEDS/v2018-08/2014/CO-em-anthro_CMIP_CEDS_2014.nc
HEMCO: Opening /fsx/HEMCO/CEDS/v2018-08/2014/SO2-em-anthro_CMIP_CEDS_2014.nc
HEMCO: Opening /fsx/HEMCO/CEDS/v2018-08/2014/NH3-em-anthro_CMIP_CEDS_2014.nc
HEMCO: Opening /fsx/HEMCO/CEDS/v2018-08/2014/BC-em-anthro_CMIP_CEDS_2014.nc
HEMCO: Opening /fsx/HEMCO/CEDS/v2018-08/2014/OC-em-anthro_CMIP_CEDS_2014.nc
HEMCO: Opening /fsx/HEMCO/CEDS/v2018-08/2014/EOH-em-anthro_CMIP_CEDS_2014.nc
HEMCO: Opening /fsx/HEMCO/CEDS/v2018-08/2014/C2H6-em-anthro_CMIP_CEDS_2014.nc
HEMCO: Opening /fsx/HEMCO/CEDS/v2018-08/2014/C3H8-em-anthro_CMIP_CEDS_2014.nc
HEMCO: Opening /fsx/HEMCO/CEDS/v2018-08/2014/ALK4_butanes-em-anthro_CMIP_CEDS_2014.nc
HEMCO: Opening /fsx/HEMCO/CEDS/v2018-08/2014/ALK4_pentanes-em-anthro_CMIP_CEDS_2014.nc
HEMCO: Opening /fsx/HEMCO/CEDS/v2018-08/2014/ALK4_hexanes-em-anthro_CMIP_CEDS_2014.nc
HEMCO: Opening /fsx/HEMCO/CEDS/v2018-08/2014/PRPE-em-anthro_CMIP_CEDS_2014.nc
HEMCO: Opening /fsx/HEMCO/CEDS/v2018-08/2014/BENZ-em-anthro_CMIP_CEDS_2014.nc
HEMCO: Opening /fsx/HEMCO/CEDS/v2018-08/2014/TOLU-em-anthro_CMIP_CEDS_2014.nc
HEMCO: Opening /fsx/HEMCO/CEDS/v2018-08/2014/XYLE-em-anthro_CMIP_CEDS_2014.nc
HEMCO: Opening /fsx/HEMCO/CEDS/v2018-08/2014/CH2O-em-anthro_CMIP_CEDS_2014.nc
HEMCO: Opening /fsx/HEMCO/CEDS/v2018-08/2014/ALD2-em-anthro_CMIP_CEDS_2014.nc
HEMCO: Opening /fsx/HEMCO/CEDS/v2018-08/2014/MEK-em-anthro_CMIP_CEDS_2014.nc
HEMCO: Opening /fsx/HEMCO/CEDS/v2018-08/2014/HCOOH-em-anthro_CMIP_CEDS_2014.nc
HEMCO: Opening /fsx/HEMCO/C2H6_2010/v2017-05/C2H6_global_anth_biof.201001.nc
HEMCO: Opening /fsx/HEMCO/NEI2011/v2017-02-MM/01/NEI11_0.1x0.1_201101_monmean.nc
HEMCO: Opening /fsx/HEMCO/NEI2011/v2017-02-MM/01/NEI11_0.1x0.1_201101_monmean_egu.nc
HEMCO: Opening /fsx/HEMCO/NEI2011/v2017-02-MM/01/NEI11_0.1x0.1_201101_monmean_egupk.nc
HEMCO: Opening /fsx/HEMCO/NEI2011/v2017-02-MM/01/NEI11_0.1x0.1_201101_monmean_oilgas.nc
HEMCO: Opening /fsx/HEMCO/NEI2011/v2017-02-MM/01/NEI11_0.1x0.1_201101_monmean_othpt.nc
HEMCO: Opening /fsx/HEMCO/NEI2011/v2017-02-MM/01/NEI11_0.1x0.1_201101_monmean_ptnonipm.nc
HEMCO: Opening /fsx/HEMCO/IODINE/v2017-09/CH3I_monthly_emissions_Ordonez_2012_COARDS.nc
HEMCO: Opening /fsx/HEMCO/IODINE/v2017-09/CH2I2_monthly_emissions_Ordonez_2012_COARDS.nc
HEMCO: Opening /fsx/HEMCO/IODINE/v2017-09/CH2ICl_monthly_emissions_Ordonez_2012_COARDS.nc
HEMCO: Opening /fsx/HEMCO/IODINE/v2017-09/CH2IBr_monthly_emissions_Ordonez_2012_COARDS.nc
HEMCO: Opening /fsx/HEMCO/CEDS/v2018-08/2014/CO-em-anthro_CMIP_CEDS_2014.nc
HEMCO: Opening /fsx/HEMCO/CEDS/v2018-08/2014/SO2-em-anthro_CMIP_CEDS_2014.nc
HEMCO: Opening /fsx/HEMCO/CEDS/v2018-08/2014/NH3-em-anthro_CMIP_CEDS_2014.nc
HEMCO: Opening /fsx/HEMCO/CEDS/v2018-08/2014/BC-em-anthro_CMIP_CEDS_2014.nc
HEMCO: Opening /fsx/HEMCO/CEDS/v2018-08/2014/OC-em-anthro_CMIP_CEDS_2014.nc
HEMCO: Opening /fsx/HEMCO/CEDS/v2018-08/2014/EOH-em-anthro_CMIP_CEDS_2014.nc
HEMCO: Opening /fsx/HEMCO/CEDS/v2018-08/2014/C2H6-em-anthro_CMIP_CEDS_2014.nc
HEMCO: Opening /fsx/HEMCO/CEDS/v2018-08/2014/C3H8-em-anthro_CMIP_CEDS_2014.nc
HEMCO: Opening /fsx/HEMCO/CEDS/v2018-08/2014/ALK4_butanes-em-anthro_CMIP_CEDS_2014.nc
HEMCO: Opening /fsx/HEMCO/CEDS/v2018-08/2014/ALK4_pentanes-em-anthro_CMIP_CEDS_2014.nc
HEMCO: Opening /fsx/HEMCO/CEDS/v2018-08/2014/ALK4_hexanes-em-anthro_CMIP_CEDS_2014.nc
HEMCO: Opening /fsx/HEMCO/CEDS/v2018-08/2014/PRPE-em-anthro_CMIP_CEDS_2014.nc
HEMCO: Opening /fsx/HEMCO/CEDS/v2018-08/2014/BENZ-em-anthro_CMIP_CEDS_2014.nc
HEMCO: Opening /fsx/HEMCO/CEDS/v2018-08/2014/TOLU-em-anthro_CMIP_CEDS_2014.nc
HEMCO: Opening /fsx/HEMCO/CEDS/v2018-08/2014/XYLE-em-anthro_CMIP_CEDS_2014.nc
HEMCO: Opening /fsx/HEMCO/CEDS/v2018-08/2014/CH2O-em-anthro_CMIP_CEDS_2014.nc
HEMCO: Opening /fsx/HEMCO/CEDS/v2018-08/2014/ALD2-em-anthro_CMIP_CEDS_2014.nc
HEMCO: Opening /fsx/HEMCO/CEDS/v2018-08/2014/MEK-em-anthro_CMIP_CEDS_2014.nc
HEMCO: Opening /fsx/HEMCO/CEDS/v2018-08/2014/HCOOH-em-anthro_CMIP_CEDS_2014.nc
HEMCO: Opening /fsx/HEMCO/CEDS/v2018-08/2014/NO-em-anthro_CMIP_CEDS_2014.nc
HEMCO: Opening /fsx/HEMCO/AEIC/v2015-01/AEIC.47L.gen.1x1.nc
HEMCO: Opening /fsx/HEMCO/ALD2/v2017-03/resp.geos.2x25.nc
HEMCO: Opening /fsx/HEMCO/DMS/v2015-07/DMS_lana.geos.1x1.nc
HEMCO: Opening /fsx/HEMCO/ALD2/v2017-03/ALD2_seawater.geos.2x25.nc
HEMCO: Opening /fsx/HEMCO/DUST_DEAD/v2014-07/dst_tvbds.geos.4x5.nc
HEMCO: Opening /fsx/HEMCO/DUST_DEAD/v2018-04/PM25FINE_ECLIPSE_2015.geos.2x25.nc
HEMCO: Opening /fsx/HEMCO/SOA/v2014-07/NVOC.geos.1x1.nc
HEMCO: Opening /fsx/HEMCO/GFED4/v2015-10/2016/GFED4_gen.025x025.201601.nc
HEMCO: Opening /fsx/HEMCO/UVALBEDO/v2015-03/uvalbedo.geos.2x25.nc
HEMCO: Opening /fsx/HEMCO/GMI/v2015-02/gmi.clim.ACET.geos5.2x25.nc
HEMCO: Opening /fsx/HEMCO/GMI/v2015-02/gmi.clim.ACTA.geos5.2x25.nc
HEMCO: Opening /fsx/HEMCO/GMI/v2015-02/gmi.clim.ALD2.geos5.2x25.nc
HEMCO: Opening /fsx/HEMCO/GMI/v2015-02/gmi.clim.ALK4.geos5.2x25.nc
HEMCO: Opening /fsx/HEMCO/GMI/v2015-02/gmi.clim.C2H6.geos5.2x25.nc
HEMCO: Opening /fsx/HEMCO/GMI/v2015-02/gmi.clim.C3H8.geos5.2x25.nc
HEMCO: Opening /fsx/HEMCO/GMI/v2015-02/gmi.clim.CCl4.geos5.2x25.nc
HEMCO: Opening /fsx/HEMCO/GMI/v2015-02/gmi.clim.CF2Cl2.geos5.2x25.nc
HEMCO: Opening /fsx/HEMCO/GMI/v2015-02/gmi.clim.CF2ClBr.geos5.2x25.nc
HEMCO: Opening /fsx/HEMCO/GMI/v2015-02/gmi.clim.CFC113.geos5.2x25.nc
HEMCO: Opening /fsx/HEMCO/GMI/v2015-02/gmi.clim.CFC114.geos5.2x25.nc
HEMCO: Opening /fsx/HEMCO/GMI/v2015-02/gmi.clim.CFC115.geos5.2x25.nc
HEMCO: Opening /fsx/HEMCO/GMI/v2015-02/gmi.clim.CFCl3.geos5.2x25.nc
HEMCO: Opening /fsx/HEMCO/GMI/v2015-02/gmi.clim.CH2O.geos5.2x25.nc
HEMCO: Opening /fsx/HEMCO/GMI/v2015-02/gmi.clim.CH3CCl3.geos5.2x25.nc
HEMCO: Opening /fsx/HEMCO/GMI/v2015-02/gmi.clim.CH3Cl.geos5.2x25.nc
HEMCO: Opening /fsx/HEMCO/GMI/v2015-02/gmi.clim.CH4.geos5.2x25.nc
HEMCO: Opening /fsx/HEMCO/GMI/v2015-02/gmi.clim.CO.geos5.2x25.nc
HEMCO: Opening /fsx/HEMCO/GMI/v2015-02/gmi.clim.Cl.geos5.2x25.nc
HEMCO: Opening /fsx/HEMCO/GMI/v2015-02/gmi.clim.Cl2.geos5.2x25.nc
HEMCO: Opening /fsx/HEMCO/GMI/v2015-02/gmi.clim.Cl2O2.geos5.2x25.nc
HEMCO: Opening /fsx/HEMCO/GMI/v2015-02/gmi.clim.ClO.geos5.2x25.nc
HEMCO: Opening /fsx/HEMCO/GMI/v2015-02/gmi.clim.EOH.geos5.2x25.nc
HEMCO: Opening /fsx/HEMCO/GMI/v2015-02/gmi.clim.GLYC.geos5.2x25.nc
HEMCO: Opening /fsx/HEMCO/GMI/v2015-02/gmi.clim.GLYX.geos5.2x25.nc
HEMCO: Opening /fsx/HEMCO/GMI/v2015-02/gmi.clim.H2402.geos5.2x25.nc
HEMCO: Opening /fsx/HEMCO/GMI/v2015-02/gmi.clim.H2O.geos5.2x25.nc
HEMCO: Opening /fsx/HEMCO/GMI/v2015-02/gmi.clim.H2O2.geos5.2x25.nc
HEMCO: Opening /fsx/HEMCO/GMI/v2015-02/gmi.clim.HAC.geos5.2x25.nc
HEMCO: Opening /fsx/HEMCO/GMI/v2015-02/gmi.clim.HCFC141b.geos5.2x25.nc
HEMCO: Opening /fsx/HEMCO/GMI/v2015-02/gmi.clim.HCFC142b.geos5.2x25.nc
HEMCO: Opening /fsx/HEMCO/GMI/v2015-02/gmi.clim.HCFC22.geos5.2x25.nc
HEMCO: Opening /fsx/HEMCO/GMI/v2015-02/gmi.clim.HCOOH.geos5.2x25.20170108.nc
HEMCO: Opening /fsx/HEMCO/GMI/v2015-02/gmi.clim.HCl.geos5.2x25.nc
HEMCO: Opening /fsx/HEMCO/GMI/v2015-02/gmi.clim.HNO2.geos5.2x25.nc
HEMCO: Opening /fsx/HEMCO/GMI/v2015-02/gmi.clim.HNO3.geos5.2x25.nc
HEMCO: Opening /fsx/HEMCO/GMI/v2015-02/gmi.clim.HNO4.geos5.2x25.nc
HEMCO: Opening /fsx/HEMCO/GMI/v2015-02/gmi.clim.HOCl.geos5.2x25.nc
HEMCO: Opening /fsx/HEMCO/GMI/v2015-02/gmi.clim.ISN1.geos5.2x25.nc
HEMCO: Opening /fsx/HEMCO/GMI/v2015-02/gmi.clim.ISOP.geos5.2x25.nc
HEMCO: Opening /fsx/HEMCO/GMI/v2015-02/gmi.clim.MACR.geos5.2x25.nc
HEMCO: Opening /fsx/HEMCO/GMI/v2015-02/gmi.clim.MAP.geos5.2x25.nc
HEMCO: Opening /fsx/HEMCO/GMI/v2015-02/gmi.clim.MEK.geos5.2x25.nc
HEMCO: Opening /fsx/HEMCO/GMI/v2015-02/gmi.clim.MGLY.geos5.2x25.nc
HEMCO: Opening /fsx/HEMCO/GMI/v2015-02/gmi.clim.MP.geos5.2x25.nc
HEMCO: Opening /fsx/HEMCO/GMI/v2015-02/gmi.clim.MVK.geos5.2x25.nc
HEMCO: Opening /fsx/HEMCO/GMI/v2015-02/gmi.clim.N2O.geos5.2x25.nc
HEMCO: Opening /fsx/HEMCO/GMI/v2015-02/gmi.clim.N2O5.geos5.2x25.nc
HEMCO: Opening /fsx/HEMCO/GMI/v2015-02/gmi.clim.NO.geos5.2x25.nc
HEMCO: Opening /fsx/HEMCO/GMI/v2015-02/gmi.clim.NO2.geos5.2x25.nc
HEMCO: Opening /fsx/HEMCO/GMI/v2015-02/gmi.clim.NO3.geos5.2x25.nc
HEMCO: Opening /fsx/HEMCO/GMI/v2015-02/gmi.clim.O3.geos5.2x25.nc
HEMCO: Opening /fsx/HEMCO/GMI/v2015-02/gmi.clim.OClO.geos5.2x25.nc
HEMCO: Opening /fsx/HEMCO/GMI/v2015-02/gmi.clim.PAN.geos5.2x25.nc
HEMCO: Opening /fsx/HEMCO/GMI/v2015-02/gmi.clim.NPMN.geos5.2x25.nc
HEMCO: Opening /fsx/HEMCO/GMI/v2015-02/gmi.clim.IPMN.geos5.2x25.nc
HEMCO: Opening /fsx/HEMCO/GMI/v2015-02/gmi.clim.PPN.geos5.2x25.nc
HEMCO: Opening /fsx/HEMCO/GMI/v2015-02/gmi.clim.PRPE.geos5.2x25.nc
HEMCO: Opening /fsx/HEMCO/GMI/v2015-02/gmi.clim.R4N2.geos5.2x25.nc
HEMCO: Opening /fsx/HEMCO/GMI/v2015-02/gmi.clim.RCHO.geos5.2x25.nc
HEMCO: Opening /fsx/HEMCO/GMI/v2015-02/gmi.clim.RIPA.geos5.2x25.nc
HEMCO: Opening /fsx/HEMCO/GMI/v2015-02/gmi.clim.RIPB.geos5.2x25.nc
HEMCO: Opening /fsx/HEMCO/GMI/v2015-02/gmi.clim.RIPD.geos5.2x25.nc
HEMCO: Opening /fsx/HEMCO/GMI/v2015-02/gmi.clim.OH.geos5.2x25.nc
HEMCO: Opening /fsx/HEMCO/NOAA_GMD/v2018-01/monthly.gridded.surface.methane.1979-2020.1x1.nc
HEMCO: Opening /fsx/HEMCO/GEIA/v2014-07/GEIA_monthscal.generic.1x1.nc
HEMCO: Opening /fsx/HEMCO/EMEP/v2015-03/EMEP.Seasonal.geos.1x1.nc
HEMCO: Opening /fsx/HEMCO/BROMINE/v2015-02/BromoCarb_Season.nc
HEMCO: Opening /fsx/HEMCO/EDGARv43/v2016-11/EDGAR_v43.Seasonal.1x1.nc
HEMCO: Opening /fsx/HEMCO/NEI2005/v2014-09/scaling/NEI99.dow.geos.1x1.nc
HEMCO: Opening /fsx/HEMCO/VOLCANO/v2015-02/2009/volc_so2_gen.1x1.47L.200901.nc
HEMCO: Opening /fsx/HEMCO/SOILNOX/v2014-07/soilNOx.fert_res.generic.05x05.nc
 vdinti: pbl height will be limited to bottom           25  model levels. top is
     431.250100000000       hpa
 =================================================
 W R F - G C   T I M E R S
    Domain           1 (Units: s)
 =================================================
  => Coupler Component                       0.052
   -- Physics & Parameterization             0.010
   -- Diagnostics Out                        0.000
  => GEOS-Chem Column                      140.387
  ===> Total Chemistry                     140.439
  => WRF                                    17.309
  ===> Total WRF-GC                        157.749
 max optd  1.9364301E+31
 max taucldi  3.0831476E-08
 max taucldw  4.3841806E-06
 Switching is not necessary as we are already
 in the right domain!
 GIGC_Chunk_Run: Running for in-PET grid #           1
 GIGC_Chunk_Run: Received new grid IM, JM, LM =          15           9
          49
 =================================================
 W R F - G C   T I M E R S
    Domain           1 (Units: s)
 =================================================
  => Coupler Component                       0.082
   -- Physics & Parameterization             0.019
   -- Diagnostics Out                        0.000
  => GEOS-Chem Column                      141.639
  ===> Total Chemistry                     141.721
  => WRF                                    50.532
  ===> Total WRF-GC                        192.252
 max optd  1.9364301E+31
 max taucldi  7.9924028E-08
 max taucldw  9.2550590E-06
 Switching is not necessary as we are already
 in the right domain!
 GIGC_Chunk_Run: Running for in-PET grid #           1
 GIGC_Chunk_Run: Received new grid IM, JM, LM =          15           9
          49
 =================================================
 W R F - G C   T I M E R S
    Domain           1 (Units: s)
 =================================================
  => Coupler Component                       0.112
   -- Physics & Parameterization             0.028
   -- Diagnostics Out                        0.000
  => GEOS-Chem Column                      142.834
  ===> Total Chemistry                     142.946
  => WRF                                    71.135
  ===> Total WRF-GC                        214.081
 max optd  1.9364301E+31
 max taucldi  1.5308467E-07
 max taucldw  1.4940813E-05
 Switching is not necessary as we are already
 in the right domain!
 GIGC_Chunk_Run: Running for in-PET grid #           1
 GIGC_Chunk_Run: Received new grid IM, JM, LM =          15           9
          49
 =================================================
 W R F - G C   T I M E R S
    Domain           1 (Units: s)
 =================================================
  => Coupler Component                       0.144
   -- Physics & Parameterization             0.039
   -- Diagnostics Out                        0.000
  => GEOS-Chem Column                      144.010
  ===> Total Chemistry                     144.154
  => WRF                                    90.030
  ===> Total WRF-GC                        234.184
 max optd  1.9364301E+31
 max taucldi  2.5887732E-07
 max taucldw  2.1775179E-05
 Switching is not necessary as we are already
 in the right domain!
 GIGC_Chunk_Run: Running for in-PET grid #           1
 GIGC_Chunk_Run: Received new grid IM, JM, LM =          15           9
          49
 =================================================
 W R F - G C   T I M E R S
    Domain           1 (Units: s)
 =================================================
  => Coupler Component                       0.174
   -- Physics & Parameterization             0.048
   -- Diagnostics Out                        0.000
  => GEOS-Chem Column                      145.153
  ===> Total Chemistry                     145.326
  => WRF                                   108.478
  ===> Total WRF-GC                        253.804
 max optd  1.9364301E+31
 max taucldi  4.0656946E-07
 max taucldw  2.9918197E-05
 Switching is not necessary as we are already
 in the right domain!
 GIGC_Chunk_Run: Running for in-PET grid #           1
 GIGC_Chunk_Run: Received new grid IM, JM, LM =          15           9
          49
 =================================================
 W R F - G C   T I M E R S
    Domain           1 (Units: s)
 =================================================
  => Coupler Component                       0.206
   -- Physics & Parameterization             0.057
   -- Diagnostics Out                        0.000
  => GEOS-Chem Column                      146.351
  ===> Total Chemistry                     146.557
  => WRF                                   126.859
  ===> Total WRF-GC                        273.416
 max optd  1.9364301E+31
 max taucldi  6.0455886E-07
 max taucldw  3.9453651E-05
 Switching is not necessary as we are already
 in the right domain!
 GIGC_Chunk_Run: Running for in-PET grid #           1
 GIGC_Chunk_Run: Received new grid IM, JM, LM =          15           9
          49
 =================================================
 W R F - G C   T I M E R S
    Domain           1 (Units: s)
 =================================================
  => Coupler Component                       0.240
   -- Physics & Parameterization             0.066
   -- Diagnostics Out                        0.000
  => GEOS-Chem Column                      147.511
  ===> Total Chemistry                     147.752
  => WRF                                   145.157
  ===> Total WRF-GC                        292.909
 max optd  1.9364301E+31
 max taucldi  8.5134343E-07
 max taucldw  4.9861348E-05
 Switching is not necessary as we are already
 in the right domain!
 GIGC_Chunk_Run: Running for in-PET grid #           1
 GIGC_Chunk_Run: Received new grid IM, JM, LM =          15           9
          49
 =================================================
 W R F - G C   T I M E R S
    Domain           1 (Units: s)
 =================================================
  => Coupler Component                       0.273
   -- Physics & Parameterization             0.075
   -- Diagnostics Out                        0.000
  => GEOS-Chem Column                      148.651
  ===> Total Chemistry                     148.924
  => WRF                                   163.428
  ===> Total WRF-GC                        312.352
 max optd  1.9364301E+31
 max taucldi  1.1352812E-06
 max taucldw  6.0447415E-05
 Switching is not necessary as we are already
 in the right domain!
 GIGC_Chunk_Run: Running for in-PET grid #           1
 GIGC_Chunk_Run: Received new grid IM, JM, LM =          15           9
          49
 =================================================
 W R F - G C   T I M E R S
    Domain           1 (Units: s)
 =================================================
  => Coupler Component                       0.305
   -- Physics & Parameterization             0.084
   -- Diagnostics Out                        0.000
  => GEOS-Chem Column                      149.729
  ===> Total Chemistry                     150.034
  => WRF                                   181.724
  ===> Total WRF-GC                        331.759
 max optd  1.9364301E+31
 max taucldi  1.4296994E-06
 max taucldw  7.0082104E-05
 Switching is not necessary as we are already
 in the right domain!
 GIGC_Chunk_Run: Running for in-PET grid #           1
 GIGC_Chunk_Run: Received new grid IM, JM, LM =          15           9
          49
 =================================================
 W R F - G C   T I M E R S
    Domain           1 (Units: s)
 =================================================
  => Coupler Component                       0.337
   -- Physics & Parameterization             0.094
   -- Diagnostics Out                        0.000
  => GEOS-Chem Column                      150.768
  ===> Total Chemistry                     151.105
  => WRF                                   200.145
  ===> Total WRF-GC                        351.250
 max optd  1.9364301E+31
 max taucldi  1.6904557E-06
 max taucldw  7.7266741E-05
 Switching is not necessary as we are already
 in the right domain!
 GIGC_Chunk_Run: Running for in-PET grid #           1
 GIGC_Chunk_Run: Received new grid IM, JM, LM =          15           9
          49
 =================================================
 W R F - G C   T I M E R S
    Domain           1 (Units: s)
 =================================================
  => Coupler Component                       0.369
   -- Physics & Parameterization             0.103
   -- Diagnostics Out                        0.000
  => GEOS-Chem Column                      151.797
  ===> Total Chemistry                     152.166
  => WRF                                   218.525
  ===> Total WRF-GC                        370.692
 max optd  1.9364301E+31
 max taucldi  1.9234112E-06
 max taucldw  8.1370548E-05
 Switching is not necessary as we are already
 in the right domain!
 GIGC_Chunk_Run: Running for in-PET grid #           1
 GIGC_Chunk_Run: Received new grid IM, JM, LM =          15           9
          49
 =================================================
 W R F - G C   T I M E R S
    Domain           1 (Units: s)
 =================================================
  => Coupler Component                       0.401
   -- Physics & Parameterization             0.112
   -- Diagnostics Out                        0.000
  => GEOS-Chem Column                      152.818
  ===> Total Chemistry                     153.219
  => WRF                                   236.786
  ===> Total WRF-GC                        390.005
 HOURLY EMISSIONS UPDATE TIME     3600.0       0.0
mediation_integrate: med_read_wrf_chem_emissions: Read emissions for time 2018-01-01_01:00:00
 max optd  1.9364301E+31
 max taucldi  2.2698441E-06
 max taucldw  8.4543637E-05
 Switching is not necessary as we are already
 in the right domain!
 GIGC_Chunk_Run: Running for in-PET grid #           1
 GIGC_Chunk_Run: Received new grid IM, JM, LM =          15           9
          49
 =================================================
 W R F - G C   T I M E R S
    Domain           1 (Units: s)
 =================================================
  => Coupler Component                       0.435
   -- Physics & Parameterization             0.121
   -- Diagnostics Out                        0.000
  => GEOS-Chem Column                      153.837
  ===> Total Chemistry                     154.272
  => WRF                                   255.143
  ===> Total WRF-GC                        409.415
 max optd  1.9364301E+31
 max taucldi  2.5380314E-06
 max taucldw  8.9869165E-05
 Switching is not necessary as we are already
 in the right domain!
 GIGC_Chunk_Run: Running for in-PET grid #           1
 GIGC_Chunk_Run: Received new grid IM, JM, LM =          15           9
          49
 =================================================
 W R F - G C   T I M E R S
    Domain           1 (Units: s)
 =================================================
  => Coupler Component                       0.468
   -- Physics & Parameterization             0.130
   -- Diagnostics Out                        0.000
  => GEOS-Chem Column                      154.869
  ===> Total Chemistry                     155.337
  => WRF                                   273.494
  ===> Total WRF-GC                        428.831
 max optd  1.9364301E+31
 max taucldi  2.7212411E-06
 max taucldw  9.2103837E-05
 Switching is not necessary as we are already
 in the right domain!
 GIGC_Chunk_Run: Running for in-PET grid #           1
 GIGC_Chunk_Run: Received new grid IM, JM, LM =          15           9
          49
 =================================================
 W R F - G C   T I M E R S
    Domain           1 (Units: s)
 =================================================
  => Coupler Component                       0.502
   -- Physics & Parameterization             0.139
   -- Diagnostics Out                        0.000
  => GEOS-Chem Column                      155.884
  ===> Total Chemistry                     156.386
  => WRF                                   291.716
  ===> Total WRF-GC                        448.102
 max optd  1.9364301E+31
 max taucldi  3.0898088E-06
 max taucldw  9.1735972E-05
 Switching is not necessary as we are already
 in the right domain!
 GIGC_Chunk_Run: Running for in-PET grid #           1
 GIGC_Chunk_Run: Received new grid IM, JM, LM =          15           9
          49
 =================================================
 W R F - G C   T I M E R S
    Domain           1 (Units: s)
 =================================================
  => Coupler Component                       0.536
   -- Physics & Parameterization             0.149
   -- Diagnostics Out                        0.000
  => GEOS-Chem Column                      156.914
  ===> Total Chemistry                     157.450
  => WRF                                   310.028
  ===> Total WRF-GC                        467.478
 max optd  1.9364301E+31
 max taucldi  3.3752337E-06
 max taucldw  9.6370124E-05
 Switching is not necessary as we are already
 in the right domain!
 GIGC_Chunk_Run: Running for in-PET grid #           1
 GIGC_Chunk_Run: Received new grid IM, JM, LM =          15           9
          49
 =================================================
 W R F - G C   T I M E R S
    Domain           1 (Units: s)
 =================================================
  => Coupler Component                       0.575
   -- Physics & Parameterization             0.158
   -- Diagnostics Out                        0.000
  => GEOS-Chem Column                      157.936
  ===> Total Chemistry                     158.511
  => WRF                                   328.280
  ===> Total WRF-GC                        486.791
 max optd  1.9364301E+31
 max taucldi  3.5530263E-06
 max taucldw  9.8313278E-05
 Switching is not necessary as we are already
 in the right domain!
 GIGC_Chunk_Run: Running for in-PET grid #           1
 GIGC_Chunk_Run: Received new grid IM, JM, LM =          15           9
          49
 =================================================
 W R F - G C   T I M E R S
    Domain           1 (Units: s)
 =================================================
  => Coupler Component                       0.612
   -- Physics & Parameterization             0.167
   -- Diagnostics Out                        0.000
  => GEOS-Chem Column                      158.986
  ===> Total Chemistry                     159.598
  => WRF                                   346.517
  ===> Total WRF-GC                        506.115
 max optd  1.9364301E+31
 max taucldi  3.8592152E-06
 max taucldw  9.7475771E-05
 Switching is not necessary as we are already
 in the right domain!
 GIGC_Chunk_Run: Running for in-PET grid #           1
 GIGC_Chunk_Run: Received new grid IM, JM, LM =          15           9
          49
 =================================================
 W R F - G C   T I M E R S
    Domain           1 (Units: s)
 =================================================
  => Coupler Component                       0.652
   -- Physics & Parameterization             0.176
   -- Diagnostics Out                        0.000
  => GEOS-Chem Column                      160.031
  ===> Total Chemistry                     160.683
  => WRF                                   364.768
  ===> Total WRF-GC                        525.452
 max optd  1.9364301E+31
 max taucldi  4.2036663E-06
 max taucldw  1.0079848E-04
 Switching is not necessary as we are already
 in the right domain!
 GIGC_Chunk_Run: Running for in-PET grid #           1
 GIGC_Chunk_Run: Received new grid IM, JM, LM =          15           9
          49
 =================================================
 W R F - G C   T I M E R S
    Domain           1 (Units: s)
 =================================================
  => Coupler Component                       0.692
   -- Physics & Parameterization             0.186
   -- Diagnostics Out                        0.000
  => GEOS-Chem Column                      161.053
  ===> Total Chemistry                     161.746
  => WRF                                   383.126
  ===> Total WRF-GC                        544.872
 max optd  1.9364301E+31
 max taucldi  4.4172175E-06
 max taucldw  1.0278658E-04
 Switching is not necessary as we are already
 in the right domain!
 GIGC_Chunk_Run: Running for in-PET grid #           1
 GIGC_Chunk_Run: Received new grid IM, JM, LM =          15           9
          49
 =================================================
 W R F - G C   T I M E R S
    Domain           1 (Units: s)
 =================================================
  => Coupler Component                       0.736
   -- Physics & Parameterization             0.195
   -- Diagnostics Out                        0.000
  => GEOS-Chem Column                      162.092
  ===> Total Chemistry                     162.828
  => WRF                                   401.254
  ===> Total WRF-GC                        564.082
 max optd  1.9364301E+31
 max taucldi  4.7042545E-06
 max taucldw  1.0306214E-04
 Switching is not necessary as we are already
 in the right domain!
 GIGC_Chunk_Run: Running for in-PET grid #           1
 GIGC_Chunk_Run: Received new grid IM, JM, LM =          15           9
          49
 =================================================
 W R F - G C   T I M E R S
    Domain           1 (Units: s)
 =================================================
  => Coupler Component                       0.779
   -- Physics & Parameterization             0.204
   -- Diagnostics Out                        0.000
  => GEOS-Chem Column                      163.120
  ===> Total Chemistry                     163.899
  => WRF                                   419.440
  ===> Total WRF-GC                        583.340
 max optd  1.9364301E+31
 max taucldi  5.0849435E-06
 max taucldw  1.0754386E-04
 Switching is not necessary as we are already
 in the right domain!
 GIGC_Chunk_Run: Running for in-PET grid #           1
 GIGC_Chunk_Run: Received new grid IM, JM, LM =          15           9
          49
 =================================================
 W R F - G C   T I M E R S
    Domain           1 (Units: s)
 =================================================
  => Coupler Component                       0.818
   -- Physics & Parameterization             0.214
   -- Diagnostics Out                        0.000
  => GEOS-Chem Column                      164.150
  ===> Total Chemistry                     164.968
  => WRF                                   437.750
  ===> Total WRF-GC                        602.718
 max optd  1.9364301E+31
 max taucldi  5.3031949E-06
 max taucldw  1.0894516E-04
 Switching is not necessary as we are already
 in the right domain!
 GIGC_Chunk_Run: Running for in-PET grid #           1
 GIGC_Chunk_Run: Received new grid IM, JM, LM =          15           9
          49
 =================================================
 W R F - G C   T I M E R S
    Domain           1 (Units: s)
 =================================================
  => Coupler Component                       0.852
   -- Physics & Parameterization             0.223
   -- Diagnostics Out                        0.000
  => GEOS-Chem Column                      165.212
  ===> Total Chemistry                     166.064
  => WRF                                   455.954
  ===> Total WRF-GC                        622.018
 HOURLY EMISSIONS UPDATE TIME     7200.0       0.0
mediation_integrate: med_read_wrf_chem_emissions: Read emissions for time 2018-01-01_02:00:00
 max optd  1.9364301E+31
 max taucldi  5.4362963E-06
 max taucldw  1.0745620E-04
 Switching is not necessary as we are already
 in the right domain!
 GIGC_Chunk_Run: Running for in-PET grid #           1
 GIGC_Chunk_Run: Received new grid IM, JM, LM =          15           9
          49
 =================================================
 W R F - G C   T I M E R S
    Domain           1 (Units: s)
 =================================================
  => Coupler Component                       0.896
   -- Physics & Parameterization             0.232
   -- Diagnostics Out                        0.000
  => GEOS-Chem Column                      166.236
  ===> Total Chemistry                     167.133
  => WRF                                   474.154
  ===> Total WRF-GC                        641.286
 max optd  1.9364301E+31
 max taucldi  5.7627399E-06
 max taucldw  1.0740724E-04
 Switching is not necessary as we are already
 in the right domain!
 GIGC_Chunk_Run: Running for in-PET grid #           1
 GIGC_Chunk_Run: Received new grid IM, JM, LM =          15           9
          49
 =================================================
 W R F - G C   T I M E R S
    Domain           1 (Units: s)
 =================================================
  => Coupler Component                       0.930
   -- Physics & Parameterization             0.241
   -- Diagnostics Out                        0.000
  => GEOS-Chem Column                      167.284
  ===> Total Chemistry                     168.214
  => WRF                                   492.398
  ===> Total WRF-GC                        660.612
 max optd  1.9364301E+31
 max taucldi  5.9084737E-06
 max taucldw  1.0757396E-04
 Switching is not necessary as we are already
 in the right domain!
 GIGC_Chunk_Run: Running for in-PET grid #           1
 GIGC_Chunk_Run: Received new grid IM, JM, LM =          15           9
          49
 =================================================
 W R F - G C   T I M E R S
    Domain           1 (Units: s)
 =================================================
  => Coupler Component                       0.962
   -- Physics & Parameterization             0.250
   -- Diagnostics Out                        0.000
  => GEOS-Chem Column                      168.337
  ===> Total Chemistry                     169.300
  => WRF                                   510.531
  ===> Total WRF-GC                        679.830
 max optd  1.9364301E+31
 max taucldi  6.2344170E-06
 max taucldw  1.1020398E-04
 Switching is not necessary as we are already
 in the right domain!
 GIGC_Chunk_Run: Running for in-PET grid #           1
 GIGC_Chunk_Run: Received new grid IM, JM, LM =          15           9
          49
 =================================================
 W R F - G C   T I M E R S
    Domain           1 (Units: s)
 =================================================
  => Coupler Component                       0.996
   -- Physics & Parameterization             0.260
   -- Diagnostics Out                        0.000
  => GEOS-Chem Column                      169.395
  ===> Total Chemistry                     170.391
  => WRF                                   528.651
  ===> Total WRF-GC                        699.043
 max optd  1.9364301E+31
 max taucldi  6.5949994E-06
 max taucldw  1.1304886E-04
 Switching is not necessary as we are already
 in the right domain!
 GIGC_Chunk_Run: Running for in-PET grid #           1
 GIGC_Chunk_Run: Received new grid IM, JM, LM =          15           9
          49
 =================================================
 W R F - G C   T I M E R S
    Domain           1 (Units: s)
 =================================================
  => Coupler Component                       1.029
   -- Physics & Parameterization             0.269
   -- Diagnostics Out                        0.000
  => GEOS-Chem Column                      170.455
  ===> Total Chemistry                     171.484
  => WRF                                   546.790
  ===> Total WRF-GC                        718.274
 max optd  1.9364301E+31
 max taucldi  6.7757474E-06
 max taucldw  1.1338230E-04
 Switching is not necessary as we are already
 in the right domain!
 GIGC_Chunk_Run: Running for in-PET grid #           1
 GIGC_Chunk_Run: Received new grid IM, JM, LM =          15           9
          49
 =================================================
 W R F - G C   T I M E R S
    Domain           1 (Units: s)
 =================================================
  => Coupler Component                       1.061
   -- Physics & Parameterization             0.278
   -- Diagnostics Out                        0.000
  => GEOS-Chem Column                      171.513
  ===> Total Chemistry                     172.575
  => WRF                                   564.922
  ===> Total WRF-GC                        737.497
 max optd  1.9364301E+31
 max taucldi  7.0787642E-06
 max taucldw  1.1402961E-04
 Switching is not necessary as we are already
 in the right domain!
 GIGC_Chunk_Run: Running for in-PET grid #           1
 GIGC_Chunk_Run: Received new grid IM, JM, LM =          15           9
          49
 =================================================
 W R F - G C   T I M E R S
    Domain           1 (Units: s)
 =================================================
  => Coupler Component                       1.093
   -- Physics & Parameterization             0.287
   -- Diagnostics Out                        0.000
  => GEOS-Chem Column                      172.573
  ===> Total Chemistry                     173.667
  => WRF                                   583.073
  ===> Total WRF-GC                        756.740
 max optd  1.9364301E+31
 max taucldi  7.4369664E-06
 max taucldw  1.1611809E-04
 Switching is not necessary as we are already
 in the right domain!
 GIGC_Chunk_Run: Running for in-PET grid #           1
 GIGC_Chunk_Run: Received new grid IM, JM, LM =          15           9
          49
 =================================================
 W R F - G C   T I M E R S
    Domain           1 (Units: s)
 =================================================
  => Coupler Component                       1.127
   -- Physics & Parameterization             0.297
   -- Diagnostics Out                        0.000
  => GEOS-Chem Column                      173.620
  ===> Total Chemistry                     174.747
  => WRF                                   601.143
  ===> Total WRF-GC                        775.890
 max optd  1.9364301E+31
 max taucldi  7.6255615E-06
 max taucldw  1.1613129E-04
 Switching is not necessary as we are already
 in the right domain!
 GIGC_Chunk_Run: Running for in-PET grid #           1
 GIGC_Chunk_Run: Received new grid IM, JM, LM =          15           9
          49
 =================================================
 W R F - G C   T I M E R S
    Domain           1 (Units: s)
 =================================================
  => Coupler Component                       1.163
   -- Physics & Parameterization             0.306
   -- Diagnostics Out                        0.000
  => GEOS-Chem Column                      174.679
  ===> Total Chemistry                     175.842
  => WRF                                   619.256
  ===> Total WRF-GC                        795.098
 max optd  1.9364301E+31
 max taucldi  7.6492061E-06
 max taucldw  1.1415182E-04
 Switching is not necessary as we are already
 in the right domain!
 GIGC_Chunk_Run: Running for in-PET grid #           1
 GIGC_Chunk_Run: Received new grid IM, JM, LM =          15           9
          49
 =================================================
 W R F - G C   T I M E R S
    Domain           1 (Units: s)
 =================================================
  => Coupler Component                       1.196
   -- Physics & Parameterization             0.315
   -- Diagnostics Out                        0.000
  => GEOS-Chem Column                      175.742
  ===> Total Chemistry                     176.938
  => WRF                                   637.410
  ===> Total WRF-GC                        814.349
 max optd  1.9364301E+31
 max taucldi  8.0592281E-06
 max taucldw  1.1079029E-04
 Switching is not necessary as we are already
 in the right domain!
 GIGC_Chunk_Run: Running for in-PET grid #           1
 GIGC_Chunk_Run: Received new grid IM, JM, LM =          15           9
          49
 =================================================
 W R F - G C   T I M E R S
    Domain           1 (Units: s)
 =================================================
  => Coupler Component                       1.228
   -- Physics & Parameterization             0.325
   -- Diagnostics Out                        0.000
  => GEOS-Chem Column                      176.809
  ===> Total Chemistry                     178.037
  => WRF                                   655.465
  ===> Total WRF-GC                        833.502
 max optd  1.9364301E+31
 max taucldi  8.3239674E-06
 max taucldw  1.1136869E-04
 Switching is not necessary as we are already
 in the right domain!
 GIGC_Chunk_Run: Running for in-PET grid #           1
 GIGC_Chunk_Run: Received new grid IM, JM, LM =          15           9
          49
 =================================================
 W R F - G C   T I M E R S
    Domain           1 (Units: s)
 =================================================
  => Coupler Component                       1.260
   -- Physics & Parameterization             0.334
   -- Diagnostics Out                        0.000
  => GEOS-Chem Column                      177.870
  ===> Total Chemistry                     179.130
  => WRF                                   673.535
  ===> Total WRF-GC                        852.665
 HOURLY EMISSIONS UPDATE TIME    10800.0       0.0
mediation_integrate: med_read_wrf_chem_emissions: Read emissions for time 2018-01-01_03:00:00
 max optd  1.9364301E+31
 max taucldi  8.4135900E-06
 max taucldw  1.1006453E-04
 Switching is not necessary as we are already
 in the right domain!
 GIGC_Chunk_Run: Running for in-PET grid #           1
 GIGC_Chunk_Run: Received new grid IM, JM, LM =          15           9
          49
 =================================================
 W R F - G C   T I M E R S
    Domain           1 (Units: s)
 =================================================
  => Coupler Component                       1.292
   -- Physics & Parameterization             0.343
   -- Diagnostics Out                        0.000
  => GEOS-Chem Column                      178.936
  ===> Total Chemistry                     180.228
  => WRF                                   691.670
  ===> Total WRF-GC                        871.898
 max optd  1.9364301E+31
 max taucldi  8.3629093E-06
 max taucldw  1.0736781E-04
 Switching is not necessary as we are already
 in the right domain!
 GIGC_Chunk_Run: Running for in-PET grid #           1
 GIGC_Chunk_Run: Received new grid IM, JM, LM =          15           9
          49
 =================================================
 W R F - G C   T I M E R S
    Domain           1 (Units: s)
 =================================================
  => Coupler Component                       1.325
   -- Physics & Parameterization             0.352
   -- Diagnostics Out                        0.000
  => GEOS-Chem Column                      180.001
  ===> Total Chemistry                     181.327
  => WRF                                   709.743
  ===> Total WRF-GC                        891.070
 max optd  1.9364301E+31
 max taucldi  8.5315378E-06
 max taucldw  1.0384325E-04
 Switching is not necessary as we are already
 in the right domain!
 GIGC_Chunk_Run: Running for in-PET grid #           1
 GIGC_Chunk_Run: Received new grid IM, JM, LM =          15           9
          49
 =================================================
 W R F - G C   T I M E R S
    Domain           1 (Units: s)
 =================================================
  => Coupler Component                       1.357
   -- Physics & Parameterization             0.362
   -- Diagnostics Out                        0.000
  => GEOS-Chem Column                      181.061
  ===> Total Chemistry                     182.418
  => WRF                                   727.846
  ===> Total WRF-GC                        910.264
 max optd  1.9364301E+31
 max taucldi  8.6916634E-06
 max taucldw  1.0000487E-04
 Switching is not necessary as we are already
 in the right domain!
 GIGC_Chunk_Run: Running for in-PET grid #           1
 GIGC_Chunk_Run: Received new grid IM, JM, LM =          15           9
          49
 =================================================
 W R F - G C   T I M E R S
    Domain           1 (Units: s)
 =================================================
  => Coupler Component                       1.389
   -- Physics & Parameterization             0.371
   -- Diagnostics Out                        0.000
  => GEOS-Chem Column                      182.132
  ===> Total Chemistry                     183.521
  => WRF                                   745.939
  ===> Total WRF-GC                        929.459
 max optd  1.9364301E+31
 max taucldi  8.7074877E-06
 max taucldw  9.7786455E-05
 Switching is not necessary as we are already
 in the right domain!
 GIGC_Chunk_Run: Running for in-PET grid #           1
 GIGC_Chunk_Run: Received new grid IM, JM, LM =          15           9
          49
 =================================================
 W R F - G C   T I M E R S
    Domain           1 (Units: s)
 =================================================
  => Coupler Component                       1.422
   -- Physics & Parameterization             0.380
   -- Diagnostics Out                        0.000
  => GEOS-Chem Column                      183.188
  ===> Total Chemistry                     184.610
  => WRF                                   763.981
  ===> Total WRF-GC                        948.591
 max optd  1.9364301E+31
 max taucldi  8.6353966E-06
 max taucldw  9.5378513E-05
 Switching is not necessary as we are already
 in the right domain!
 GIGC_Chunk_Run: Running for in-PET grid #           1
 GIGC_Chunk_Run: Received new grid IM, JM, LM =          15           9
          49
 =================================================
 W R F - G C   T I M E R S
    Domain           1 (Units: s)
 =================================================
  => Coupler Component                       1.454
   -- Physics & Parameterization             0.389
   -- Diagnostics Out                        0.000
  => GEOS-Chem Column                      184.253
  ===> Total Chemistry                     185.708
  => WRF                                   782.349
  ===> Total WRF-GC                        968.057
 max optd  1.9364301E+31
 max taucldi  9.0501298E-06
 max taucldw  9.2553062E-05
 Switching is not necessary as we are already
 in the right domain!
 GIGC_Chunk_Run: Running for in-PET grid #           1
 GIGC_Chunk_Run: Received new grid IM, JM, LM =          15           9
          49
 =================================================
 W R F - G C   T I M E R S
    Domain           1 (Units: s)
 =================================================
  => Coupler Component                       1.487
   -- Physics & Parameterization             0.398
   -- Diagnostics Out                        0.000
  => GEOS-Chem Column                      185.310
  ===> Total Chemistry                     186.798
  => WRF                                   800.510
  ===> Total WRF-GC                        987.308
 max optd  1.9364301E+31
 max taucldi  1.0318781E-05
 max taucldw  9.1403075E-05
 Switching is not necessary as we are already
 in the right domain!
 GIGC_Chunk_Run: Running for in-PET grid #           1
 GIGC_Chunk_Run: Received new grid IM, JM, LM =          15           9
          49
 =================================================
 W R F - G C   T I M E R S
    Domain           1 (Units: s)
 =================================================
  => Coupler Component                       1.519
   -- Physics & Parameterization             0.407
   -- Diagnostics Out                        0.000
  => GEOS-Chem Column                      186.379
  ===> Total Chemistry                     187.899
  => WRF                                   818.540
  ===> Total WRF-GC                       1006.439
 max optd  1.9364301E+31
 max taucldi  1.1524864E-05
 max taucldw  1.0029879E-04
 Switching is not necessary as we are already
 in the right domain!
 GIGC_Chunk_Run: Running for in-PET grid #           1
 GIGC_Chunk_Run: Received new grid IM, JM, LM =          15           9
          49
 =================================================
 W R F - G C   T I M E R S
    Domain           1 (Units: s)
 =================================================
  => Coupler Component                       1.554
   -- Physics & Parameterization             0.416
   -- Diagnostics Out                        0.000
  => GEOS-Chem Column                      187.431
  ===> Total Chemistry                     188.986
  => WRF                                   836.752
  ===> Total WRF-GC                       1025.738
 max optd  1.9364301E+31
 max taucldi  1.2609107E-05
 max taucldw  1.0775351E-04
 Switching is not necessary as we are already
 in the right domain!
 GIGC_Chunk_Run: Running for in-PET grid #           1
 GIGC_Chunk_Run: Received new grid IM, JM, LM =          15           9
          49
 =================================================
 W R F - G C   T I M E R S
    Domain           1 (Units: s)
 =================================================
  => Coupler Component                       1.596
   -- Physics & Parameterization             0.426
   -- Diagnostics Out                        0.000
  => GEOS-Chem Column                      188.473
  ===> Total Chemistry                     190.069
  => WRF                                   854.885
  ===> Total WRF-GC                       1044.953
 max optd  1.9364301E+31
 max taucldi  1.3555959E-05
 max taucldw  1.1379563E-04
 Switching is not necessary as we are already
 in the right domain!
 GIGC_Chunk_Run: Running for in-PET grid #           1
 GIGC_Chunk_Run: Received new grid IM, JM, LM =          15           9
          49
 =================================================
 W R F - G C   T I M E R S
    Domain           1 (Units: s)
 =================================================
  => Coupler Component                       1.631
   -- Physics & Parameterization             0.436
   -- Diagnostics Out                        0.000
  => GEOS-Chem Column                      189.518
  ===> Total Chemistry                     191.150
  => WRF                                   872.996
  ===> Total WRF-GC                       1064.145
 max optd  1.9364301E+31
 max taucldi  1.4404992E-05
 max taucldw  1.1992451E-04
 Switching is not necessary as we are already
 in the right domain!
 GIGC_Chunk_Run: Running for in-PET grid #           1
 GIGC_Chunk_Run: Received new grid IM, JM, LM =          15           9
          49
 =================================================
 W R F - G C   T I M E R S
    Domain           1 (Units: s)
 =================================================
  => Coupler Component                       1.667
   -- Physics & Parameterization             0.445
   -- Diagnostics Out                        0.000
  => GEOS-Chem Column                      190.568
  ===> Total Chemistry                     192.234
  => WRF                                   891.157
  ===> Total WRF-GC                       1083.392
 HOURLY EMISSIONS UPDATE TIME    14400.0       0.0
mediation_integrate: med_read_wrf_chem_emissions: Read emissions for time 2018-01-01_04:00:00
 max optd  1.9364301E+31
 max taucldi  1.5926107E-05
 max taucldw  1.2751999E-04
 Switching is not necessary as we are already
 in the right domain!
 GIGC_Chunk_Run: Running for in-PET grid #           1
 GIGC_Chunk_Run: Received new grid IM, JM, LM =          15           9
          49
 =================================================
 W R F - G C   T I M E R S
    Domain           1 (Units: s)
 =================================================
  => Coupler Component                       1.704
   -- Physics & Parameterization             0.454
   -- Diagnostics Out                        0.000
  => GEOS-Chem Column                      191.615
  ===> Total Chemistry                     193.319
  => WRF                                   909.298
  ===> Total WRF-GC                       1102.617
 max optd  1.9364301E+31
 max taucldi  1.7492246E-05
 max taucldw  1.3560160E-04
 Switching is not necessary as we are already
 in the right domain!
 GIGC_Chunk_Run: Running for in-PET grid #           1
 GIGC_Chunk_Run: Received new grid IM, JM, LM =          15           9
          49
 =================================================
 W R F - G C   T I M E R S
    Domain           1 (Units: s)
 =================================================
  => Coupler Component                       1.745
   -- Physics & Parameterization             0.463
   -- Diagnostics Out                        0.000
  => GEOS-Chem Column                      192.661
  ===> Total Chemistry                     194.406
  => WRF                                   927.448
  ===> Total WRF-GC                       1121.855
 max optd  1.9364301E+31
 max taucldi  1.8879435E-05
 max taucldw  1.4587739E-04
 Switching is not necessary as we are already
 in the right domain!
 GIGC_Chunk_Run: Running for in-PET grid #           1
 GIGC_Chunk_Run: Received new grid IM, JM, LM =          15           9
          49
 =================================================
 W R F - G C   T I M E R S
    Domain           1 (Units: s)
 =================================================
  => Coupler Component                       1.783
   -- Physics & Parameterization             0.473
   -- Diagnostics Out                        0.000
  => GEOS-Chem Column                      193.714
  ===> Total Chemistry                     195.496
  => WRF                                   945.667
  ===> Total WRF-GC                       1141.163
 max optd  1.9364301E+31
 max taucldi  2.0125044E-05
 max taucldw  1.5813229E-04
 Switching is not necessary as we are already
 in the right domain!
 GIGC_Chunk_Run: Running for in-PET grid #           1
 GIGC_Chunk_Run: Received new grid IM, JM, LM =          15           9
          49
 =================================================
 W R F - G C   T I M E R S
    Domain           1 (Units: s)
 =================================================
  => Coupler Component                       1.821
   -- Physics & Parameterization             0.482
   -- Diagnostics Out                        0.000
  => GEOS-Chem Column                      194.760
  ===> Total Chemistry                     196.581
  => WRF                                   963.778
  ===> Total WRF-GC                       1160.358
 max optd  1.9364301E+31
 max taucldi  2.1279020E-05
 max taucldw  1.7131754E-04
 Switching is not necessary as we are already
 in the right domain!
 GIGC_Chunk_Run: Running for in-PET grid #           1
 GIGC_Chunk_Run: Received new grid IM, JM, LM =          15           9
          49
 =================================================
 W R F - G C   T I M E R S
    Domain           1 (Units: s)
 =================================================
  => Coupler Component                       1.851
   -- Physics & Parameterization             0.491
   -- Diagnostics Out                        0.000
  => GEOS-Chem Column                      195.797
  ===> Total Chemistry                     197.648
  => WRF                                   981.967
  ===> Total WRF-GC                       1179.614
 max optd  1.9364301E+31
 max taucldi  2.2379691E-05
 max taucldw  1.8559441E-04
 Switching is not necessary as we are already
 in the right domain!
 GIGC_Chunk_Run: Running for in-PET grid #           1
 GIGC_Chunk_Run: Received new grid IM, JM, LM =          15           9
          49
 =================================================
 W R F - G C   T I M E R S
    Domain           1 (Units: s)
 =================================================
  => Coupler Component                       1.883
   -- Physics & Parameterization             0.500
   -- Diagnostics Out                        0.000
  => GEOS-Chem Column                      196.864
  ===> Total Chemistry                     198.747
  => WRF                                  1000.117
  ===> Total WRF-GC                       1198.864
 max optd  1.9364301E+31
 max taucldi  2.3765077E-05
 max taucldw  2.0060099E-04
 Switching is not necessary as we are already
 in the right domain!
 GIGC_Chunk_Run: Running for in-PET grid #           1
 GIGC_Chunk_Run: Received new grid IM, JM, LM =          15           9
          49
 =================================================
 W R F - G C   T I M E R S
    Domain           1 (Units: s)
 =================================================
  => Coupler Component                       1.916
   -- Physics & Parameterization             0.509
   -- Diagnostics Out                        0.000
  => GEOS-Chem Column                      197.917
  ===> Total Chemistry                     199.833
  => WRF                                  1018.302
  ===> Total WRF-GC                       1218.135
 max optd  1.9364301E+31
 max taucldi  2.5755851E-05
 max taucldw  2.1573370E-04
 Switching is not necessary as we are already
 in the right domain!
 GIGC_Chunk_Run: Running for in-PET grid #           1
 GIGC_Chunk_Run: Received new grid IM, JM, LM =          15           9
          49
 =================================================
 W R F - G C   T I M E R S
    Domain           1 (Units: s)
 =================================================
  => Coupler Component                       1.948
   -- Physics & Parameterization             0.518
   -- Diagnostics Out                        0.000
  => GEOS-Chem Column                      198.979
  ===> Total Chemistry                     200.927
  => WRF                                  1036.416
  ===> Total WRF-GC                       1237.343
 max optd  1.9364301E+31
 max taucldi  2.7726237E-05
 max taucldw  2.3008688E-04
 Switching is not necessary as we are already
 in the right domain!
 GIGC_Chunk_Run: Running for in-PET grid #           1
 GIGC_Chunk_Run: Received new grid IM, JM, LM =          15           9
          49
 =================================================
 W R F - G C   T I M E R S
    Domain           1 (Units: s)
 =================================================
  => Coupler Component                       1.980
   -- Physics & Parameterization             0.528
   -- Diagnostics Out                        0.000
  => GEOS-Chem Column                      200.041
  ===> Total Chemistry                     202.021
  => WRF                                  1054.555
  ===> Total WRF-GC                       1256.577
 max optd  1.9364301E+31
 max taucldi  2.9617211E-05
 max taucldw  2.4318135E-04
 Switching is not necessary as we are already
 in the right domain!
 GIGC_Chunk_Run: Running for in-PET grid #           1
 GIGC_Chunk_Run: Received new grid IM, JM, LM =          15           9
          49
 =================================================
 W R F - G C   T I M E R S
    Domain           1 (Units: s)
 =================================================
  => Coupler Component                       2.012
   -- Physics & Parameterization             0.536
   -- Diagnostics Out                        0.000
  => GEOS-Chem Column                      201.106
  ===> Total Chemistry                     203.118
  => WRF                                  1072.678
  ===> Total WRF-GC                       1275.797
 max optd  1.9364301E+31
 max taucldi  3.1370742E-05
 max taucldw  2.5457688E-04
 Switching is not necessary as we are already
 in the right domain!
 GIGC_Chunk_Run: Running for in-PET grid #           1
 GIGC_Chunk_Run: Received new grid IM, JM, LM =          15           9
          49
 =================================================
 W R F - G C   T I M E R S
    Domain           1 (Units: s)
 =================================================
  => Coupler Component                       2.042
   -- Physics & Parameterization             0.546
   -- Diagnostics Out                        0.000
  => GEOS-Chem Column                      202.160
  ===> Total Chemistry                     204.202
  => WRF                                  1090.766
  ===> Total WRF-GC                       1294.968
 max optd  1.9364301E+31
 max taucldi  3.2947686E-05
 max taucldw  2.6403417E-04
 Switching is not necessary as we are already
 in the right domain!
 GIGC_Chunk_Run: Running for in-PET grid #           1
 GIGC_Chunk_Run: Received new grid IM, JM, LM =          15           9
          49
 =================================================
 W R F - G C   T I M E R S
    Domain           1 (Units: s)
 =================================================
  => Coupler Component                       2.072
   -- Physics & Parameterization             0.555
   -- Diagnostics Out                        0.000
  => GEOS-Chem Column                      203.232
  ===> Total Chemistry                     205.304
  => WRF                                  1108.846
  ===> Total WRF-GC                       1314.150
 HOURLY EMISSIONS UPDATE TIME    18000.0       0.0
mediation_integrate: med_read_wrf_chem_emissions: Read emissions for time 2018-01-01_05:00:00
 max optd  1.9364301E+31
 max taucldi  3.4329423E-05
 max taucldw  2.7150408E-04
 Switching is not necessary as we are already
 in the right domain!
 GIGC_Chunk_Run: Running for in-PET grid #           1
 GIGC_Chunk_Run: Received new grid IM, JM, LM =          15           9
          49
 =================================================
 W R F - G C   T I M E R S
    Domain           1 (Units: s)
 =================================================
  => Coupler Component                       2.107
   -- Physics & Parameterization             0.565
   -- Diagnostics Out                        0.000
  => GEOS-Chem Column                      204.292
  ===> Total Chemistry                     206.399
  => WRF                                  1126.985
  ===> Total WRF-GC                       1333.383
 max optd  1.9364301E+31
 max taucldi  3.5516463E-05
 max taucldw  2.7714492E-04
 Switching is not necessary as we are already
 in the right domain!
 GIGC_Chunk_Run: Running for in-PET grid #           1
 GIGC_Chunk_Run: Received new grid IM, JM, LM =          15           9
          49
 =================================================
 W R F - G C   T I M E R S
    Domain           1 (Units: s)
 =================================================
  => Coupler Component                       2.139
   -- Physics & Parameterization             0.574
   -- Diagnostics Out                        0.000
  => GEOS-Chem Column                      205.356
  ===> Total Chemistry                     207.495
  => WRF                                  1145.093
  ===> Total WRF-GC                       1352.588
 max optd  1.9364301E+31
 max taucldi  3.7296148E-05
 max taucldw  2.8104096E-04
 Switching is not necessary as we are already
 in the right domain!
 GIGC_Chunk_Run: Running for in-PET grid #           1
 GIGC_Chunk_Run: Received new grid IM, JM, LM =          15           9
          49
 =================================================
 W R F - G C   T I M E R S
    Domain           1 (Units: s)
 =================================================
  => Coupler Component                       2.171
   -- Physics & Parameterization             0.583
   -- Diagnostics Out                        0.000
  => GEOS-Chem Column                      206.412
  ===> Total Chemistry                     208.582
  => WRF                                  1163.192
  ===> Total WRF-GC                       1371.775
 max optd  1.9364301E+31
 max taucldi  3.9417217E-05
 max taucldw  2.8338638E-04
 Switching is not necessary as we are already
 in the right domain!
 GIGC_Chunk_Run: Running for in-PET grid #           1
 GIGC_Chunk_Run: Received new grid IM, JM, LM =          15           9
          49
 =================================================
 W R F - G C   T I M E R S
    Domain           1 (Units: s)
 =================================================
  => Coupler Component                       2.206
   -- Physics & Parameterization             0.592
   -- Diagnostics Out                        0.000
  => GEOS-Chem Column                      207.472
  ===> Total Chemistry                     209.678
  => WRF                                  1181.322
  ===> Total WRF-GC                       1391.000
 max optd  1.9364301E+31
 max taucldi  4.1148745E-05
 max taucldw  2.8838206E-04
 Switching is not necessary as we are already
 in the right domain!
 GIGC_Chunk_Run: Running for in-PET grid #           1
 GIGC_Chunk_Run: Received new grid IM, JM, LM =          15           9
          49
 =================================================
 W R F - G C   T I M E R S
    Domain           1 (Units: s)
 =================================================
  => Coupler Component                       2.238
   -- Physics & Parameterization             0.601
   -- Diagnostics Out                        0.000
  => GEOS-Chem Column                      208.533
  ===> Total Chemistry                     210.771
  => WRF                                  1199.507
  ===> Total WRF-GC                       1410.277
 max optd  1.9364301E+31
 max taucldi  4.2441807E-05
 max taucldw  2.9371810E-04
 Switching is not necessary as we are already
 in the right domain!
 GIGC_Chunk_Run: Running for in-PET grid #           1
 GIGC_Chunk_Run: Received new grid IM, JM, LM =          15           9
          49
 =================================================
 W R F - G C   T I M E R S
    Domain           1 (Units: s)
 =================================================
  => Coupler Component                       2.274
   -- Physics & Parameterization             0.610
   -- Diagnostics Out                        0.000
  => GEOS-Chem Column                      209.582
  ===> Total Chemistry                     211.856
  => WRF                                  1217.587
  ===> Total WRF-GC                       1429.443
 max optd  1.9364301E+31
 max taucldi  4.3148073E-05
 max taucldw  2.9746420E-04
 Switching is not necessary as we are already
 in the right domain!
 GIGC_Chunk_Run: Running for in-PET grid #           1
 GIGC_Chunk_Run: Received new grid IM, JM, LM =          15           9
          49
 =================================================
 W R F - G C   T I M E R S
    Domain           1 (Units: s)
 =================================================
  => Coupler Component                       2.308
   -- Physics & Parameterization             0.619
   -- Diagnostics Out                        0.000
  => GEOS-Chem Column                      210.640
  ===> Total Chemistry                     212.948
  => WRF                                  1235.807
  ===> Total WRF-GC                       1448.755
 max optd  1.9364301E+31
 max taucldi  4.3171927E-05
 max taucldw  3.0697486E-04
 Switching is not necessary as we are already
 in the right domain!
 GIGC_Chunk_Run: Running for in-PET grid #           1
 GIGC_Chunk_Run: Received new grid IM, JM, LM =          15           9
          49
 =================================================
 W R F - G C   T I M E R S
    Domain           1 (Units: s)
 =================================================
  => Coupler Component                       2.340
   -- Physics & Parameterization             0.628
   -- Diagnostics Out                        0.000
  => GEOS-Chem Column                      211.706
  ===> Total Chemistry                     214.047
  => WRF                                  1253.914
  ===> Total WRF-GC                       1467.961
 max optd  1.9364301E+31
 max taucldi  4.5136825E-05
 max taucldw  3.1236935E-04
 Switching is not necessary as we are already
 in the right domain!
 GIGC_Chunk_Run: Running for in-PET grid #           1
 GIGC_Chunk_Run: Received new grid IM, JM, LM =          15           9
          49
 =================================================
 W R F - G C   T I M E R S
    Domain           1 (Units: s)
 =================================================
  => Coupler Component                       2.375
   -- Physics & Parameterization             0.638
   -- Diagnostics Out                        0.000
  => GEOS-Chem Column                      212.764
  ===> Total Chemistry                     215.140
  => WRF                                  1272.075
  ===> Total WRF-GC                       1487.215
 max optd  1.9364301E+31
 max taucldi  4.6657140E-05
 max taucldw  3.2292728E-04
 Switching is not necessary as we are already
 in the right domain!
 GIGC_Chunk_Run: Running for in-PET grid #           1
 GIGC_Chunk_Run: Received new grid IM, JM, LM =          15           9
          49
 =================================================
 W R F - G C   T I M E R S
    Domain           1 (Units: s)
 =================================================
  => Coupler Component                       2.410
   -- Physics & Parameterization             0.647
   -- Diagnostics Out                        0.000
  => GEOS-Chem Column                      213.826
  ===> Total Chemistry                     216.236
  => WRF                                  1290.466
  ===> Total WRF-GC                       1506.702
 max optd  1.9364301E+31
 max taucldi  4.7365087E-05
 max taucldw  3.3474373E-04
 Switching is not necessary as we are already
 in the right domain!
 GIGC_Chunk_Run: Running for in-PET grid #           1
 GIGC_Chunk_Run: Received new grid IM, JM, LM =          15           9
          49
 =================================================
 W R F - G C   T I M E R S
    Domain           1 (Units: s)
 =================================================
  => Coupler Component                       2.446
   -- Physics & Parameterization             0.656
   -- Diagnostics Out                        0.000
  => GEOS-Chem Column                      214.875
  ===> Total Chemistry                     217.321
  => WRF                                  1308.595
  ===> Total WRF-GC                       1525.916
 max optd  1.9364301E+31
 max taucldi  4.8630987E-05
 max taucldw  3.4082559E-04
 Switching is not necessary as we are already
 in the right domain!
 GIGC_Chunk_Run: Running for in-PET grid #           1
 GIGC_Chunk_Run: Received new grid IM, JM, LM =          15           9
          49
 =================================================
 W R F - G C   T I M E R S
    Domain           1 (Units: s)
 =================================================
  => Coupler Component                       2.481
   -- Physics & Parameterization             0.665
   -- Diagnostics Out                        0.000
  => GEOS-Chem Column                      215.920
  ===> Total Chemistry                     218.402
  => WRF                                  1326.731
  ===> Total WRF-GC                       1545.133
 HOURLY EMISSIONS UPDATE TIME    21600.0       0.0
mediation_integrate: med_read_wrf_chem_emissions: Read emissions for time 2018-01-01_06:00:00
 max optd  1.9364301E+31
 max taucldi  4.9252492E-05
 max taucldw  3.4242545E-04
 Switching is not necessary as we are already
 in the right domain!
 GIGC_Chunk_Run: Running for in-PET grid #           1
 GIGC_Chunk_Run: Received new grid IM, JM, LM =          15           9
          49
 =================================================
 W R F - G C   T I M E R S
    Domain           1 (Units: s)
 =================================================
  => Coupler Component                       2.523
   -- Physics & Parameterization             0.674
   -- Diagnostics Out                        0.000
  => GEOS-Chem Column                      216.968
  ===> Total Chemistry                     219.491
  => WRF                                  1785.411
  ===> Total WRF-GC                       2004.902
 max optd  1.9364301E+31
 max taucldi  4.9677798E-05
 max taucldw  3.4332546E-04
 Switching is not necessary as we are already
 in the right domain!
 GIGC_Chunk_Run: Running for in-PET grid #           1
 GIGC_Chunk_Run: Received new grid IM, JM, LM =          15           9
          49
 =================================================
 W R F - G C   T I M E R S
    Domain           1 (Units: s)
 =================================================
  => Coupler Component                       2.559
   -- Physics & Parameterization             0.683
   -- Diagnostics Out                        0.000
  => GEOS-Chem Column                      218.026
  ===> Total Chemistry                     220.585
  => WRF                                  1803.559
  ===> Total WRF-GC                       2024.144
 max optd  1.9364301E+31
 max taucldi  5.1598530E-05
 max taucldw  3.5349169E-04
 Switching is not necessary as we are already
 in the right domain!
 GIGC_Chunk_Run: Running for in-PET grid #           1
 GIGC_Chunk_Run: Received new grid IM, JM, LM =          15           9
          49
 =================================================
 W R F - G C   T I M E R S
    Domain           1 (Units: s)
 =================================================
  => Coupler Component                       2.595
   -- Physics & Parameterization             0.693
   -- Diagnostics Out                        0.000
  => GEOS-Chem Column                      219.081
  ===> Total Chemistry                     221.677
  => WRF                                  1821.841
  ===> Total WRF-GC                       2043.518
 max optd  1.9364301E+31
 max taucldi  5.2833733E-05
 max taucldw  3.5942747E-04
 Switching is not necessary as we are already
 in the right domain!
 GIGC_Chunk_Run: Running for in-PET grid #           1
 GIGC_Chunk_Run: Received new grid IM, JM, LM =          15           9
          49
 =================================================
 W R F - G C   T I M E R S
    Domain           1 (Units: s)
 =================================================
  => Coupler Component                       2.634
[...]
  => GEOS-Chem Column                      265.939
  ===> Total Chemistry                     270.324
  => WRF                                  2640.453
  ===> Total WRF-GC                       2910.777
 HOURLY EMISSIONS UPDATE TIME    36000.0       0.0
mediation_integrate: med_read_wrf_chem_emissions: Read emissions for time 2018-01-01_10:00:00
 max optd  1.9364301E+31
 max taucldi  0.1452747    
 max taucldw  4.7482582E-04
 Switching is not necessary as we are already
 in the right domain!
 GIGC_Chunk_Run: Running for in-PET grid #           1
 GIGC_Chunk_Run: Received new grid IM, JM, LM =          15           9
          49
 =================================================
 W R F - G C   T I M E R S
    Domain           1 (Units: s)
 =================================================
  => Coupler Component                       4.426
   -- Physics & Parameterization             1.112
   -- Diagnostics Out                        0.000
  => GEOS-Chem Column                      266.972
  ===> Total Chemistry                     271.398
  => WRF                                  2658.681
  ===> Total WRF-GC                       2930.080
 max optd  1.9364301E+31
 max taucldi  0.1430468    
 max taucldw  4.8122718E-04
 Switching is not necessary as we are already
 in the right domain!
 GIGC_Chunk_Run: Running for in-PET grid #           1
 GIGC_Chunk_Run: Received new grid IM, JM, LM =          15           9
          49
 =================================================
 W R F - G C   T I M E R S
    Domain           1 (Units: s)
 =================================================
  => Coupler Component                       4.462
   -- Physics & Parameterization             1.121
   -- Diagnostics Out                        0.000
  => GEOS-Chem Column                      268.016
  ===> Total Chemistry                     272.478
  => WRF                                  2676.864
  ===> Total WRF-GC                       2949.342
 max optd  1.9364301E+31
 max taucldi  0.1434704    
 max taucldw  4.8716360E-04
 Switching is not necessary as we are already
 in the right domain!
 GIGC_Chunk_Run: Running for in-PET grid #           1
 GIGC_Chunk_Run: Received new grid IM, JM, LM =          15           9
          49
 =================================================
 W R F - G C   T I M E R S
    Domain           1 (Units: s)
 =================================================
  => Coupler Component                       4.498
   -- Physics & Parameterization             1.130
   -- Diagnostics Out                        0.000
  => GEOS-Chem Column                      269.052
  ===> Total Chemistry                     273.550
  => WRF                                  2695.019
  ===> Total WRF-GC                       2968.569
 max optd  1.9364301E+31
 max taucldi  0.1479354    
 max taucldw  4.9202301E-04
 Switching is not necessary as we are already
 in the right domain!
 GIGC_Chunk_Run: Running for in-PET grid #           1
 GIGC_Chunk_Run: Received new grid IM, JM, LM =          15           9
          49
 =================================================
 W R F - G C   T I M E R S
    Domain           1 (Units: s)
 =================================================
  => Coupler Component                       4.537
   -- Physics & Parameterization             1.139
   -- Diagnostics Out                        0.000
  => GEOS-Chem Column                      270.093
  ===> Total Chemistry                     274.631
  => WRF                                  2713.270
  ===> Total WRF-GC                       2987.901
 max optd  1.9364301E+31
 max taucldi  0.1625601    
 max taucldw  4.9518980E-04
 Switching is not necessary as we are already
 in the right domain!
 GIGC_Chunk_Run: Running for in-PET grid #           1
 GIGC_Chunk_Run: Received new grid IM, JM, LM =          15           9
          49
 =================================================
 W R F - G C   T I M E R S
    Domain           1 (Units: s)
 =================================================
  => Coupler Component                       4.573
   -- Physics & Parameterization             1.148
   -- Diagnostics Out                        0.000
  => GEOS-Chem Column                      271.146
  ===> Total Chemistry                     275.719
  => WRF                                  2731.477
  ===> Total WRF-GC                       3007.197
 max optd  1.9364301E+31
 max taucldi  0.1759126    
 max taucldw  4.9617101E-04
 Switching is not necessary as we are already
 in the right domain!
 GIGC_Chunk_Run: Running for in-PET grid #           1
 GIGC_Chunk_Run: Received new grid IM, JM, LM =          15           9
          49
 =================================================
 W R F - G C   T I M E R S
    Domain           1 (Units: s)
 =================================================
  => Coupler Component                       4.611
   -- Physics & Parameterization             1.157
   -- Diagnostics Out                        0.000
  => GEOS-Chem Column                      272.194
  ===> Total Chemistry                     276.805
  => WRF                                  2749.581
  ===> Total WRF-GC                       3026.386
 max optd  1.9364301E+31
 max taucldi  0.1865838    
 max taucldw  4.9457030E-04
 Switching is not necessary as we are already
 in the right domain!
 GIGC_Chunk_Run: Running for in-PET grid #           1
 GIGC_Chunk_Run: Received new grid IM, JM, LM =          15           9
          49
 =================================================
 W R F - G C   T I M E R S
    Domain           1 (Units: s)
 =================================================
  => Coupler Component                       4.649
   -- Physics & Parameterization             1.166
   -- Diagnostics Out                        0.000
  => GEOS-Chem Column                      273.243
  ===> Total Chemistry                     277.892
  => WRF                                  2767.769
  ===> Total WRF-GC                       3045.660
 max optd  1.9364301E+31
 max taucldi  0.1950553    
 max taucldw  4.8998772E-04
 Switching is not necessary as we are already
 in the right domain!
 GIGC_Chunk_Run: Running for in-PET grid #           1
 GIGC_Chunk_Run: Received new grid IM, JM, LM =          15           9
          49
 =================================================
 W R F - G C   T I M E R S
    Domain           1 (Units: s)
 =================================================
  => Coupler Component                       4.689
   -- Physics & Parameterization             1.175
   -- Diagnostics Out                        0.000
  => GEOS-Chem Column                      274.293
  ===> Total Chemistry                     278.981
  => WRF                                  2785.940
  ===> Total WRF-GC                       3064.922
 max optd  1.9364301E+31
 max taucldi  0.2012516    
 max taucldw  4.8203795E-04
 Switching is not necessary as we are already
 in the right domain!
 GIGC_Chunk_Run: Running for in-PET grid #           1
 GIGC_Chunk_Run: Received new grid IM, JM, LM =          15           9
          49
 =================================================
 W R F - G C   T I M E R S
    Domain           1 (Units: s)
 =================================================
  => Coupler Component                       4.726
   -- Physics & Parameterization             1.184
   -- Diagnostics Out                        0.000
  => GEOS-Chem Column                      275.335
  ===> Total Chemistry                     280.061
  => WRF                                  2804.078
  ===> Total WRF-GC                       3084.139
 max optd  1.9364301E+31
 max taucldi  0.2046614    
 max taucldw  4.7712887E-04
 Switching is not necessary as we are already
 in the right domain!
 GIGC_Chunk_Run: Running for in-PET grid #           1
 GIGC_Chunk_Run: Received new grid IM, JM, LM =          15           9
          49
 =================================================
 W R F - G C   T I M E R S
    Domain           1 (Units: s)
 =================================================
  => Coupler Component                       4.766
   -- Physics & Parameterization             1.194
   -- Diagnostics Out                        0.000
  => GEOS-Chem Column                      276.368
  ===> Total Chemistry                     281.134
  => WRF                                  2822.298
  ===> Total WRF-GC                       3103.433
 max optd  1.9364301E+31
 max taucldi  0.2026463    
 max taucldw  4.7829546E-04
 Switching is not necessary as we are already
 in the right domain!
 GIGC_Chunk_Run: Running for in-PET grid #           1
 GIGC_Chunk_Run: Received new grid IM, JM, LM =          15           9
          49
 =================================================
 W R F - G C   T I M E R S
    Domain           1 (Units: s)
 =================================================
  => Coupler Component                       4.803
   -- Physics & Parameterization             1.203
   -- Diagnostics Out                        0.000
  => GEOS-Chem Column                      277.413
  ===> Total Chemistry                     282.216
  => WRF                                  2840.481
  ===> Total WRF-GC                       3122.696
 max optd  1.9364301E+31
 max taucldi  0.1934055    
 max taucldw  4.7696161E-04
 Switching is not necessary as we are already
 in the right domain!
 GIGC_Chunk_Run: Running for in-PET grid #           1
 GIGC_Chunk_Run: Received new grid IM, JM, LM =          15           9
          49
 =================================================
 W R F - G C   T I M E R S
    Domain           1 (Units: s)
 =================================================
  => Coupler Component                       4.843
   -- Physics & Parameterization             1.212
   -- Diagnostics Out                        0.000
  => GEOS-Chem Column                      278.460
  ===> Total Chemistry                     283.303
  => WRF                                  2858.683
  ===> Total WRF-GC                       3141.986
 HOURLY EMISSIONS UPDATE TIME    39600.0       0.0
mediation_integrate: med_read_wrf_chem_emissions: Read emissions for time 2018-01-01_11:00:00
 max optd  1.9364301E+31
 max taucldi  0.1817714    
 max taucldw  4.7321391E-04
 Switching is not necessary as we are already
 in the right domain!
 GIGC_Chunk_Run: Running for in-PET grid #           1
 GIGC_Chunk_Run: Received new grid IM, JM, LM =          15           9
          49
 =================================================
 W R F - G C   T I M E R S
    Domain           1 (Units: s)
 =================================================
  => Coupler Component                       4.879
   -- Physics & Parameterization             1.221
   -- Diagnostics Out                        0.000
  => GEOS-Chem Column                      279.520
  ===> Total Chemistry                     284.399
  => WRF                                  2876.890
  ===> Total WRF-GC                       3161.290
 max optd  1.9364301E+31
 max taucldi  0.1749125    
 max taucldw  4.6702838E-04
 Switching is not necessary as we are already
 in the right domain!
 GIGC_Chunk_Run: Running for in-PET grid #           1
 GIGC_Chunk_Run: Received new grid IM, JM, LM =          15           9
          49
 =================================================
 W R F - G C   T I M E R S
    Domain           1 (Units: s)
 =================================================
  => Coupler Component                       4.915
   -- Physics & Parameterization             1.230
   -- Diagnostics Out                        0.000
  => GEOS-Chem Column                      280.572
  ===> Total Chemistry                     285.487
  => WRF                                  2895.019
  ===> Total WRF-GC                       3180.506
 max optd  1.9364301E+31
 max taucldi  0.1740152    
 max taucldw  4.5843664E-04
 Switching is not necessary as we are already
 in the right domain!
 GIGC_Chunk_Run: Running for in-PET grid #           1
 GIGC_Chunk_Run: Received new grid IM, JM, LM =          15           9
          49
 =================================================
 W R F - G C   T I M E R S
    Domain           1 (Units: s)
 =================================================
  => Coupler Component                       4.953
   -- Physics & Parameterization             1.240
   -- Diagnostics Out                        0.000
  => GEOS-Chem Column                      281.610
  ===> Total Chemistry                     286.563
  => WRF                                  2913.249
  ===> Total WRF-GC                       3199.812
 max optd  1.9364301E+31
 max taucldi  0.1706364    
 max taucldw  4.4770024E-04
 Switching is not necessary as we are already
 in the right domain!
 GIGC_Chunk_Run: Running for in-PET grid #           1
 GIGC_Chunk_Run: Received new grid IM, JM, LM =          15           9
          49
 =================================================
 W R F - G C   T I M E R S
    Domain           1 (Units: s)
 =================================================
  => Coupler Component                       4.994
   -- Physics & Parameterization             1.249
   -- Diagnostics Out                        0.000
  => GEOS-Chem Column                      282.637
  ===> Total Chemistry                     287.631
  => WRF                                  2931.543
  ===> Total WRF-GC                       3219.174
 max optd  1.9364301E+31
 max taucldi  0.1688427    
 max taucldw  4.3525716E-04
 Switching is not necessary as we are already
 in the right domain!
 GIGC_Chunk_Run: Running for in-PET grid #           1
 GIGC_Chunk_Run: Received new grid IM, JM, LM =          15           9
          49
 =================================================
 W R F - G C   T I M E R S
    Domain           1 (Units: s)
 =================================================
  => Coupler Component                       5.031
   -- Physics & Parameterization             1.258
   -- Diagnostics Out                        0.000
  => GEOS-Chem Column                      283.676
  ===> Total Chemistry                     288.707
  => WRF                                  2949.999
  ===> Total WRF-GC                       3238.706
 max optd  1.9364301E+31
 max taucldi  0.1653772    
 max taucldw  4.2162731E-04
 Switching is not necessary as we are already
 in the right domain!
 GIGC_Chunk_Run: Running for in-PET grid #           1
 GIGC_Chunk_Run: Received new grid IM, JM, LM =          15           9
          49
 =================================================
 W R F - G C   T I M E R S
    Domain           1 (Units: s)
 =================================================
  => Coupler Component                       5.067
   -- Physics & Parameterization             1.266
   -- Diagnostics Out                        0.000
  => GEOS-Chem Column                      284.724
  ===> Total Chemistry                     289.791
  => WRF                                  2968.421
  ===> Total WRF-GC                       3258.212
 max optd  1.9364301E+31
 max taucldi  0.1597390    
 max taucldw  4.0734018E-04
 Switching is not necessary as we are already
 in the right domain!
 GIGC_Chunk_Run: Running for in-PET grid #           1
 GIGC_Chunk_Run: Received new grid IM, JM, LM =          15           9
          49
 =================================================
 W R F - G C   T I M E R S
    Domain           1 (Units: s)
 =================================================
  => Coupler Component                       5.107
   -- Physics & Parameterization             1.275
   -- Diagnostics Out                        0.000
  => GEOS-Chem Column                      285.767
  ===> Total Chemistry                     290.874
  => WRF                                  2986.966
  ===> Total WRF-GC                       3277.839
 max optd  1.9364301E+31
 max taucldi  0.1555546    
 max taucldw  3.9269208E-04
 Switching is not necessary as we are already
 in the right domain!
 GIGC_Chunk_Run: Running for in-PET grid #           1
 GIGC_Chunk_Run: Received new grid IM, JM, LM =          15           9
          49
 =================================================
 W R F - G C   T I M E R S
    Domain           1 (Units: s)
 =================================================
  => Coupler Component                       5.146
   -- Physics & Parameterization             1.284
   -- Diagnostics Out                        0.000
  => GEOS-Chem Column                      286.817
  ===> Total Chemistry                     291.963
  => WRF                                  3005.551
  ===> Total WRF-GC                       3297.513
 max optd  1.9364301E+31
 max taucldi  0.1551809    
 max taucldw  3.8105255E-04
 Switching is not necessary as we are already
 in the right domain!
 GIGC_Chunk_Run: Running for in-PET grid #           1
 GIGC_Chunk_Run: Received new grid IM, JM, LM =          15           9
          49
 =================================================
 W R F - G C   T I M E R S
    Domain           1 (Units: s)
 =================================================
  => Coupler Component                       5.182
   -- Physics & Parameterization             1.293
   -- Diagnostics Out                        0.000
  => GEOS-Chem Column                      287.868
  ===> Total Chemistry                     293.050
  => WRF                                  3024.243
  ===> Total WRF-GC                       3317.292
 max optd  1.9364301E+31
 max taucldi  0.1564227    
 max taucldw  3.7303651E-04
 Switching is not necessary as we are already
 in the right domain!
 GIGC_Chunk_Run: Running for in-PET grid #           1
 GIGC_Chunk_Run: Received new grid IM, JM, LM =          15           9
          49
 =================================================
 W R F - G C   T I M E R S
    Domain           1 (Units: s)
 =================================================
  => Coupler Component                       5.220
   -- Physics & Parameterization             1.302
   -- Diagnostics Out                        0.000
  => GEOS-Chem Column                      288.892
  ===> Total Chemistry                     294.111
  => WRF                                  3043.144
  ===> Total WRF-GC                       3337.255
 max optd  1.9364301E+31
 max taucldi  0.1647193    
 max taucldw  3.6457993E-04
 Switching is not necessary as we are already
 in the right domain!
 GIGC_Chunk_Run: Running for in-PET grid #           1
 GIGC_Chunk_Run: Received new grid IM, JM, LM =          15           9
          49
 =================================================
 W R F - G C   T I M E R S
    Domain           1 (Units: s)
 =================================================
  => Coupler Component                       5.256
   -- Physics & Parameterization             1.311
   -- Diagnostics Out                        0.000
  => GEOS-Chem Column                      289.946
  ===> Total Chemistry                     295.201
  => WRF                                  3061.995
  ===> Total WRF-GC                       3357.196
 max optd  1.9364301E+31
 max taucldi  0.1719059    
 max taucldw  3.5574983E-04
 Switching is not necessary as we are already
 in the right domain!
 GIGC_Chunk_Run: Running for in-PET grid #           1
 GIGC_Chunk_Run: Received new grid IM, JM, LM =          15           9
          49
 =================================================
 W R F - G C   T I M E R S
    Domain           1 (Units: s)
 =================================================
  => Coupler Component                       5.288
   -- Physics & Parameterization             1.320
   -- Diagnostics Out                        0.000
  => GEOS-Chem Column                      290.982
  ===> Total Chemistry                     296.271
  => WRF                                  3080.736
  ===> Total WRF-GC                       3377.007
d01 2018-01-01_12:00:00 wrf: SUCCESS COMPLETE WRF
