taskid: 2087 hostname: ip-172-31-7-64
Quilting with   1 groups of   0 I/O tasks.
 Ntasks in X           64 , ntasks in Y           72
--- WARNING: traj_opt is zero, but num_traj is not zero; setting num_traj to zero.
--- NOTE: sst_update is 0, setting io_form_auxinput4 = 0 and auxinput4_interval = 0 for all domains
--- NOTE: grid_fdda is 0 for domain      1, setting gfdda interval and ending time to 0 for that domain.
--- NOTE: both grid_sfdda and pxlsm_soil_nudge are 0 for domain      1, setting sgfdda interval and ending time to 0 for that domain.
--- NOTE: obs_nudge_opt is 0 for domain      1, setting obs nudging interval and ending time to 0 for that domain.
--- NOTE: bl_pbl_physics /= 4, implies mfshconv must be 0, resetting
Need MYNN PBL for icloud_bl = 1, resetting to 0
*************************************
No physics suite selected.
Physics options will be used directly from the namelist.
*************************************
--- NOTE: RRTMG radiation is in use, setting:  levsiz=59, alevsiz=12, no_src_types=6
--- NOTE: num_soil_layers has been set to      4
WRF V3.9.1.1 MODEL
 *************************************
 Parent domain
 ids,ide,jds,jde            1         950           1         650
 ims,ime,jms,jme          569         597         283         305
 ips,ipe,jps,jpe          576         590         290         298
 *************************************
DYNAMICS OPTION: Eulerian Mass Coordinate
   alloc_space_field: domain            1 ,              203623800  bytes allocated
  med_initialdata_input: calling input_input
Max map factor in domain 1 =  1.40. Scale the dt in the model accordingly.
INPUT LandUse = "USGS"
 LANDUSE TYPE = "USGS" FOUND          33  CATEGORIES           2  SEASONS WATER CATEGORY =           16  SNOW CATEGORY =           24
INITIALIZE THREE Noah LSM RELATED TABLES
*****************************************************************
  __          _______  ______       _____  _____ _    _ _____
  \ \        / /  __ \|  ____|     / ____|/ ____| |  | |  __ \
   \ \  /\  / /| |__) | |__ ______| |  __| |    | |__| | |__) |
    \ \/  \/ / |  _  /|  __|______| | |_ | |    |  __  |  ___/
     \  /\  /  | | \ \| |         | |__| | |____| |  | | |
      \/  \/   |_|  \_\_|          \_____|\_____|_|  |_|_|
*****************************************************************
         WRF-GC MODEL, VERSION 1811.11 - WRF BINDINGS
 For errors, suggestions & feedback email linhaipeng@pku.edu.cn
*****************************************************************
    This is domain            1
 ### GIGC_Stateful_Mod: Root CPU, after READ_INPUT_FILE
  Linoz Data:  O3 climatology :                  z*=10, 12, ..., 58                             2.700E-08 1.083E-05
  Linoz Data:  Temperature climatology :         z*=10, 12, ..., 58                             1.859E+02 2.904E+02
  Linoz Data:  Column O3 above box climalology : z*=10, 12, ..., 58                             7.538E-02 3.770E+02
  Linoz Data:  P-L O3 climatology (mr/s):        z*=10, 12, ..., 58                            -1.590E-10 2.835E-11
  Linoz Data:  d(P-L)/dO3 (1/s) :                z*=10, 12, ..., 58                            -8.386E-04 7.556E-09
  Linoz Data:  d(P-L)/dT (mr/K) :                z*=10, 12, ..., 58                            -5.742E-12 4.615E-14
  Linoz Data:  d(P-L)/d(column O3) (mr/DU) :     z*=10, 12, ..., 58                            -1.921E-12 5.038E-10
 ### GIGC_Stateful_Mod: Root CPU, after LINOZ_READ
 %%%%%%%%% GIGC IN-PET GRID SWITCHING HACKS %%%%%%%%%
     (Not very) Proudly brought to you by hplin      
 Some debug information:
 ID:           1
 IM, JM, LM:          15           9          49  will be set as PAR
 Allocs: CMN T GC F
 RC at entry-point:           0
 %%%%%%%%%%%%%%%%%%%%%%%%%%%%%%%%%%%%%%%%%%%%%%%%%%%%
 No need to switch HcoState for ID           1
 Exit RC:            0
 %%%%%%%%%    FINISHED GIGC_Switch_Dims    %%%%%%%%%
 GIGC_Chunk_Init: Received new grid IM, JM, LM =          15           9
          49
     ### GIGC_INIT_SIMULATION: after Input_Opt% setups
     ### GIGC_INIT_SIMULATION: after GC_Init_All
     ### GIGC_INIT_SIMULATION: after GC_Init_Extra
     ### GIGC_INIT_SIMULATION: after INIT_FJX
 # GIGC_CHUNK_MOD: after SV save, ID =           1
 WRFGC chemics_init: Following information regarding Input_Opt% (for all doms)
 After domain           1
 HPC:  T
 LPRT:  F
 DoConv:  T
 DoDryDep:  T
 DoEmis:  T
 DoChem:  T
 DoTurb:  T
 DoWetDep:  T

 tropopause_init: DONE intialized domain            1

 mediation_integrate: med_read_wrf_chem_emissions: Open file wrfchemi_00z_d01
 HOURLY EMISSIONS UPDATE TIME        0.0       0.0
mediation_integrate: med_read_wrf_chem_emissions: Read emissions for time 2018-01-01_00:00:00
open_aux_u : error opening wrffirechemi_d01_2018-01-01_00:00:00 for reading. 100
open_aux_u : error opening wrfchemi_gocart_bg_d01 for reading. 100
d01 2018-01-01_00:00:00 Input data processed for aux input   8 for domain   1
open_aux_u : error opening wrfchemv_d01 for reading. 100
 Tile Strategy is not specified. Assuming 1D-Y
WRF TILE   1 IS    576 IE    590 JS    290 JE    298
WRF NUMBER OF TILES =   1
 max optd  6.1184648E+33
 max taucldi  0.0000000E+00
 max taucldw  0.0000000E+00
 =================================================
 W R F - G C   T I M E R S
    Domain           1 (Units: s)
 =================================================
  => Coupler Component                       0.039
   -- Physics & Parameterization             0.001
   -- Diagnostics Out                        0.000
  => GEOS-Chem Column                        0.000
  ===> Total Chemistry                       0.039
  => WRF                                     0.000
  ===> Total WRF-GC                          0.039
 max optd  6.1184648E+33
 max taucldi  1.0000007E-14
 max taucldw  1.0000007E-14
 %%%%%%%%% GIGC IN-PET GRID SWITCHING HACKS %%%%%%%%%
     (Not very) Proudly brought to you by hplin      
 Some debug information:
 ID:           1
 IM, JM, LM:          15           9          49  will be set as PAR
 Allocs: CMN T GC T
 RC at entry-point:           0
 %%%%%%%%%%%%%%%%%%%%%%%%%%%%%%%%%%%%%%%%%%%%%%%%%%%%
 No need to switch HcoState for ID           1
 Debug HcoState nSpc, NX, NY, NZ         163          15           9          49
 Exit RC:            0
 %%%%%%%%%    FINISHED GIGC_Switch_Dims    %%%%%%%%%
 GIGC_Chunk_Run: Running for in-PET grid #           1
 GIGC_Chunk_Run: Received new grid IM, JM, LM =          15           9
          49
HEMCO: Opening /fsx/HEMCO/BIOFUEL/v2014-07/biofuel.geos.4x5.nc
HEMCO: Opening /fsx/HEMCO/BROMINE/v2015-02/Bromocarb_Liang2010.nc
HEMCO: Opening /fsx/HEMCO/ACET/v2014-07/ACET_seawater.generic.1x1.nc
HEMCO: Opening /fsx/HEMCO/SOILNOX/v2014-07/DepReservoirDefault.nc
HEMCO: Opening /fsx/HEMCO/SOILNOX/v2014-07/soilNOx.landtype.generic.025x025.1L.nc
HEMCO: Opening /fsx/HEMCO/SOILNOX/v2014-07/soilNOx.climate.generic.05x05.nc
HEMCO: Opening /fsx/HEMCO/DUST_DEAD/v2014-07/dst_tibds.geos.4x5.nc
HEMCO: Opening /fsx/HEMCO/DUST_DEAD/v2014-07/GOCART_src_fn.geos.4x5.nc
HEMCO: Opening /fsx/HEMCO/MEGAN/v2018-05/MEGAN2.1_EF.geos.025x03125.nc
HEMCO: Opening /fsx/HEMCO/MEGAN/v2017-07/CLM4_PFT.geos.025x03125.nc
HEMCO: Opening /fsx/HEMCO/TIMEZONES/v2015-02/timezones_voronoi_1x1.nc
HEMCO: Opening /fsx/HEMCO/STRAT/v2015-01/Bry/GEOSCCM_Bry.200701.day.nc
HEMCO: Opening /fsx/HEMCO/STRAT/v2015-01/Bry/GEOSCCM_Bry.200701.night.nc
HEMCO: Opening /fsx/HEMCO/OMOC/v2018-01/OMOC.DJF.01x01.nc
HEMCO: Opening /fsx/HEMCO/OMOC/v2018-01/OMOC.MAM.01x01.nc
HEMCO: Opening /fsx/HEMCO/OMOC/v2018-01/OMOC.JJA.01x01.nc
HEMCO: Opening /fsx/HEMCO/OMOC/v2018-01/OMOC.SON.01x01.nc
HEMCO: Opening /fsx/HEMCO/AnnualScalar/v2014-07/AnnualScalar.geos.1x1.nc
HEMCO: Opening /fsx/HEMCO/EDGARv42/v2015-02/NO/EDGAR_hourly_NOxScal.nc
HEMCO: Opening /fsx/HEMCO/MASKS/v2018-09/EMEP_mask.geos.1x1.20151222.nc
HEMCO: Opening /fsx/HEMCO/MASKS/v2018-09/Canada_mask.geos.1x1.nc
HEMCO: Opening /fsx/HEMCO/MASKS/v2018-09/SE_Asia_mask.generic.1x1.nc
HEMCO: Opening /fsx/HEMCO/MASKS/v2018-09/MIX_Asia_mask.generic.025x025.nc
HEMCO: Opening /fsx/HEMCO/MASKS/v2018-09/CONUS_Mask.01x01.nc
HEMCO: Opening /fsx/HEMCO/MASKS/v2018-09/AF_LANDMASK.geos.05x0666.global.nc
HEMCO: Opening /fsx/HEMCO/MASKS/v2018-09/China_mask.generic.1x1.nc
HEMCO: Opening /fsx/HEMCO/MASKS/v2018-09/India_mask.generic.1x1.nc
HEMCO: Opening /fsx/HEMCO/AnnualScalar/v2014-07/AnnualScalar.geos.1x1.nc
HEMCO: Opening /fsx/HEMCO/NH3/v2014-07/NH3_geos.4x5.nc
HEMCO: Opening /fsx/HEMCO/NH3/v2018-04/NH3_Arctic_seabirds.nc
HEMCO: Opening /fsx/HEMCO/CEDS/v2018-08/2014/NO-em-anthro_CMIP_CEDS_2014.nc
HEMCO: Opening /fsx/HEMCO/CEDS/v2018-08/2014/CO-em-anthro_CMIP_CEDS_2014.nc
HEMCO: Opening /fsx/HEMCO/CEDS/v2018-08/2014/SO2-em-anthro_CMIP_CEDS_2014.nc
HEMCO: Opening /fsx/HEMCO/CEDS/v2018-08/2014/NH3-em-anthro_CMIP_CEDS_2014.nc
HEMCO: Opening /fsx/HEMCO/CEDS/v2018-08/2014/BC-em-anthro_CMIP_CEDS_2014.nc
HEMCO: Opening /fsx/HEMCO/CEDS/v2018-08/2014/OC-em-anthro_CMIP_CEDS_2014.nc
HEMCO: Opening /fsx/HEMCO/CEDS/v2018-08/2014/EOH-em-anthro_CMIP_CEDS_2014.nc
HEMCO: Opening /fsx/HEMCO/CEDS/v2018-08/2014/C2H6-em-anthro_CMIP_CEDS_2014.nc
HEMCO: Opening /fsx/HEMCO/CEDS/v2018-08/2014/C3H8-em-anthro_CMIP_CEDS_2014.nc
HEMCO: Opening /fsx/HEMCO/CEDS/v2018-08/2014/ALK4_butanes-em-anthro_CMIP_CEDS_2014.nc
HEMCO: Opening /fsx/HEMCO/CEDS/v2018-08/2014/ALK4_pentanes-em-anthro_CMIP_CEDS_2014.nc
HEMCO: Opening /fsx/HEMCO/CEDS/v2018-08/2014/ALK4_hexanes-em-anthro_CMIP_CEDS_2014.nc
HEMCO: Opening /fsx/HEMCO/CEDS/v2018-08/2014/PRPE-em-anthro_CMIP_CEDS_2014.nc
HEMCO: Opening /fsx/HEMCO/CEDS/v2018-08/2014/BENZ-em-anthro_CMIP_CEDS_2014.nc
HEMCO: Opening /fsx/HEMCO/CEDS/v2018-08/2014/TOLU-em-anthro_CMIP_CEDS_2014.nc
HEMCO: Opening /fsx/HEMCO/CEDS/v2018-08/2014/XYLE-em-anthro_CMIP_CEDS_2014.nc
HEMCO: Opening /fsx/HEMCO/CEDS/v2018-08/2014/CH2O-em-anthro_CMIP_CEDS_2014.nc
HEMCO: Opening /fsx/HEMCO/CEDS/v2018-08/2014/ALD2-em-anthro_CMIP_CEDS_2014.nc
HEMCO: Opening /fsx/HEMCO/CEDS/v2018-08/2014/MEK-em-anthro_CMIP_CEDS_2014.nc
HEMCO: Opening /fsx/HEMCO/CEDS/v2018-08/2014/HCOOH-em-anthro_CMIP_CEDS_2014.nc
HEMCO: Opening /fsx/HEMCO/C2H6_2010/v2017-05/C2H6_global_anth_biof.201001.nc
HEMCO: Opening /fsx/HEMCO/NEI2011/v2017-02-MM/01/NEI11_0.1x0.1_201101_monmean.nc
HEMCO: Opening /fsx/HEMCO/NEI2011/v2017-02-MM/01/NEI11_0.1x0.1_201101_monmean_egu.nc
HEMCO: Opening /fsx/HEMCO/NEI2011/v2017-02-MM/01/NEI11_0.1x0.1_201101_monmean_egupk.nc
HEMCO: Opening /fsx/HEMCO/NEI2011/v2017-02-MM/01/NEI11_0.1x0.1_201101_monmean_oilgas.nc
HEMCO: Opening /fsx/HEMCO/NEI2011/v2017-02-MM/01/NEI11_0.1x0.1_201101_monmean_othpt.nc
HEMCO: Opening /fsx/HEMCO/NEI2011/v2017-02-MM/01/NEI11_0.1x0.1_201101_monmean_ptnonipm.nc
HEMCO: Opening /fsx/HEMCO/IODINE/v2017-09/CH3I_monthly_emissions_Ordonez_2012_COARDS.nc
HEMCO: Opening /fsx/HEMCO/IODINE/v2017-09/CH2I2_monthly_emissions_Ordonez_2012_COARDS.nc
HEMCO: Opening /fsx/HEMCO/IODINE/v2017-09/CH2ICl_monthly_emissions_Ordonez_2012_COARDS.nc
HEMCO: Opening /fsx/HEMCO/IODINE/v2017-09/CH2IBr_monthly_emissions_Ordonez_2012_COARDS.nc
HEMCO: Opening /fsx/HEMCO/CEDS/v2018-08/2014/CO-em-anthro_CMIP_CEDS_2014.nc
HEMCO: Opening /fsx/HEMCO/CEDS/v2018-08/2014/SO2-em-anthro_CMIP_CEDS_2014.nc
HEMCO: Opening /fsx/HEMCO/CEDS/v2018-08/2014/NH3-em-anthro_CMIP_CEDS_2014.nc
HEMCO: Opening /fsx/HEMCO/CEDS/v2018-08/2014/BC-em-anthro_CMIP_CEDS_2014.nc
HEMCO: Opening /fsx/HEMCO/CEDS/v2018-08/2014/OC-em-anthro_CMIP_CEDS_2014.nc
HEMCO: Opening /fsx/HEMCO/CEDS/v2018-08/2014/EOH-em-anthro_CMIP_CEDS_2014.nc
HEMCO: Opening /fsx/HEMCO/CEDS/v2018-08/2014/C2H6-em-anthro_CMIP_CEDS_2014.nc
HEMCO: Opening /fsx/HEMCO/CEDS/v2018-08/2014/C3H8-em-anthro_CMIP_CEDS_2014.nc
HEMCO: Opening /fsx/HEMCO/CEDS/v2018-08/2014/ALK4_butanes-em-anthro_CMIP_CEDS_2014.nc
HEMCO: Opening /fsx/HEMCO/CEDS/v2018-08/2014/ALK4_pentanes-em-anthro_CMIP_CEDS_2014.nc
HEMCO: Opening /fsx/HEMCO/CEDS/v2018-08/2014/ALK4_hexanes-em-anthro_CMIP_CEDS_2014.nc
HEMCO: Opening /fsx/HEMCO/CEDS/v2018-08/2014/PRPE-em-anthro_CMIP_CEDS_2014.nc
HEMCO: Opening /fsx/HEMCO/CEDS/v2018-08/2014/BENZ-em-anthro_CMIP_CEDS_2014.nc
HEMCO: Opening /fsx/HEMCO/CEDS/v2018-08/2014/TOLU-em-anthro_CMIP_CEDS_2014.nc
HEMCO: Opening /fsx/HEMCO/CEDS/v2018-08/2014/XYLE-em-anthro_CMIP_CEDS_2014.nc
HEMCO: Opening /fsx/HEMCO/CEDS/v2018-08/2014/CH2O-em-anthro_CMIP_CEDS_2014.nc
HEMCO: Opening /fsx/HEMCO/CEDS/v2018-08/2014/ALD2-em-anthro_CMIP_CEDS_2014.nc
HEMCO: Opening /fsx/HEMCO/CEDS/v2018-08/2014/MEK-em-anthro_CMIP_CEDS_2014.nc
HEMCO: Opening /fsx/HEMCO/CEDS/v2018-08/2014/HCOOH-em-anthro_CMIP_CEDS_2014.nc
HEMCO: Opening /fsx/HEMCO/CEDS/v2018-08/2014/NO-em-anthro_CMIP_CEDS_2014.nc
HEMCO: Opening /fsx/HEMCO/AEIC/v2015-01/AEIC.47L.gen.1x1.nc
HEMCO: Opening /fsx/HEMCO/ALD2/v2017-03/resp.geos.2x25.nc
HEMCO: Opening /fsx/HEMCO/DMS/v2015-07/DMS_lana.geos.1x1.nc
HEMCO: Opening /fsx/HEMCO/ALD2/v2017-03/ALD2_seawater.geos.2x25.nc
HEMCO: Opening /fsx/HEMCO/DUST_DEAD/v2014-07/dst_tvbds.geos.4x5.nc
HEMCO: Opening /fsx/HEMCO/DUST_DEAD/v2018-04/PM25FINE_ECLIPSE_2015.geos.2x25.nc
HEMCO: Opening /fsx/HEMCO/SOA/v2014-07/NVOC.geos.1x1.nc
HEMCO: Opening /fsx/HEMCO/GFED4/v2015-10/2016/GFED4_gen.025x025.201601.nc
HEMCO: Opening /fsx/HEMCO/UVALBEDO/v2015-03/uvalbedo.geos.2x25.nc
HEMCO: Opening /fsx/HEMCO/GMI/v2015-02/gmi.clim.ACET.geos5.2x25.nc
HEMCO: Opening /fsx/HEMCO/GMI/v2015-02/gmi.clim.ACTA.geos5.2x25.nc
HEMCO: Opening /fsx/HEMCO/GMI/v2015-02/gmi.clim.ALD2.geos5.2x25.nc
HEMCO: Opening /fsx/HEMCO/GMI/v2015-02/gmi.clim.ALK4.geos5.2x25.nc
HEMCO: Opening /fsx/HEMCO/GMI/v2015-02/gmi.clim.C2H6.geos5.2x25.nc
HEMCO: Opening /fsx/HEMCO/GMI/v2015-02/gmi.clim.C3H8.geos5.2x25.nc
HEMCO: Opening /fsx/HEMCO/GMI/v2015-02/gmi.clim.CCl4.geos5.2x25.nc
HEMCO: Opening /fsx/HEMCO/GMI/v2015-02/gmi.clim.CF2Cl2.geos5.2x25.nc
HEMCO: Opening /fsx/HEMCO/GMI/v2015-02/gmi.clim.CF2ClBr.geos5.2x25.nc
HEMCO: Opening /fsx/HEMCO/GMI/v2015-02/gmi.clim.CFC113.geos5.2x25.nc
HEMCO: Opening /fsx/HEMCO/GMI/v2015-02/gmi.clim.CFC114.geos5.2x25.nc
HEMCO: Opening /fsx/HEMCO/GMI/v2015-02/gmi.clim.CFC115.geos5.2x25.nc
HEMCO: Opening /fsx/HEMCO/GMI/v2015-02/gmi.clim.CFCl3.geos5.2x25.nc
HEMCO: Opening /fsx/HEMCO/GMI/v2015-02/gmi.clim.CH2O.geos5.2x25.nc
HEMCO: Opening /fsx/HEMCO/GMI/v2015-02/gmi.clim.CH3CCl3.geos5.2x25.nc
HEMCO: Opening /fsx/HEMCO/GMI/v2015-02/gmi.clim.CH3Cl.geos5.2x25.nc
HEMCO: Opening /fsx/HEMCO/GMI/v2015-02/gmi.clim.CH4.geos5.2x25.nc
HEMCO: Opening /fsx/HEMCO/GMI/v2015-02/gmi.clim.CO.geos5.2x25.nc
HEMCO: Opening /fsx/HEMCO/GMI/v2015-02/gmi.clim.Cl.geos5.2x25.nc
HEMCO: Opening /fsx/HEMCO/GMI/v2015-02/gmi.clim.Cl2.geos5.2x25.nc
HEMCO: Opening /fsx/HEMCO/GMI/v2015-02/gmi.clim.Cl2O2.geos5.2x25.nc
HEMCO: Opening /fsx/HEMCO/GMI/v2015-02/gmi.clim.ClO.geos5.2x25.nc
HEMCO: Opening /fsx/HEMCO/GMI/v2015-02/gmi.clim.EOH.geos5.2x25.nc
HEMCO: Opening /fsx/HEMCO/GMI/v2015-02/gmi.clim.GLYC.geos5.2x25.nc
HEMCO: Opening /fsx/HEMCO/GMI/v2015-02/gmi.clim.GLYX.geos5.2x25.nc
HEMCO: Opening /fsx/HEMCO/GMI/v2015-02/gmi.clim.H2402.geos5.2x25.nc
HEMCO: Opening /fsx/HEMCO/GMI/v2015-02/gmi.clim.H2O.geos5.2x25.nc
HEMCO: Opening /fsx/HEMCO/GMI/v2015-02/gmi.clim.H2O2.geos5.2x25.nc
HEMCO: Opening /fsx/HEMCO/GMI/v2015-02/gmi.clim.HAC.geos5.2x25.nc
HEMCO: Opening /fsx/HEMCO/GMI/v2015-02/gmi.clim.HCFC141b.geos5.2x25.nc
HEMCO: Opening /fsx/HEMCO/GMI/v2015-02/gmi.clim.HCFC142b.geos5.2x25.nc
HEMCO: Opening /fsx/HEMCO/GMI/v2015-02/gmi.clim.HCFC22.geos5.2x25.nc
HEMCO: Opening /fsx/HEMCO/GMI/v2015-02/gmi.clim.HCOOH.geos5.2x25.20170108.nc
HEMCO: Opening /fsx/HEMCO/GMI/v2015-02/gmi.clim.HCl.geos5.2x25.nc
HEMCO: Opening /fsx/HEMCO/GMI/v2015-02/gmi.clim.HNO2.geos5.2x25.nc
HEMCO: Opening /fsx/HEMCO/GMI/v2015-02/gmi.clim.HNO3.geos5.2x25.nc
HEMCO: Opening /fsx/HEMCO/GMI/v2015-02/gmi.clim.HNO4.geos5.2x25.nc
HEMCO: Opening /fsx/HEMCO/GMI/v2015-02/gmi.clim.HOCl.geos5.2x25.nc
HEMCO: Opening /fsx/HEMCO/GMI/v2015-02/gmi.clim.ISN1.geos5.2x25.nc
HEMCO: Opening /fsx/HEMCO/GMI/v2015-02/gmi.clim.ISOP.geos5.2x25.nc
HEMCO: Opening /fsx/HEMCO/GMI/v2015-02/gmi.clim.MACR.geos5.2x25.nc
HEMCO: Opening /fsx/HEMCO/GMI/v2015-02/gmi.clim.MAP.geos5.2x25.nc
HEMCO: Opening /fsx/HEMCO/GMI/v2015-02/gmi.clim.MEK.geos5.2x25.nc
HEMCO: Opening /fsx/HEMCO/GMI/v2015-02/gmi.clim.MGLY.geos5.2x25.nc
HEMCO: Opening /fsx/HEMCO/GMI/v2015-02/gmi.clim.MP.geos5.2x25.nc
HEMCO: Opening /fsx/HEMCO/GMI/v2015-02/gmi.clim.MVK.geos5.2x25.nc
HEMCO: Opening /fsx/HEMCO/GMI/v2015-02/gmi.clim.N2O.geos5.2x25.nc
HEMCO: Opening /fsx/HEMCO/GMI/v2015-02/gmi.clim.N2O5.geos5.2x25.nc
HEMCO: Opening /fsx/HEMCO/GMI/v2015-02/gmi.clim.NO.geos5.2x25.nc
HEMCO: Opening /fsx/HEMCO/GMI/v2015-02/gmi.clim.NO2.geos5.2x25.nc
HEMCO: Opening /fsx/HEMCO/GMI/v2015-02/gmi.clim.NO3.geos5.2x25.nc
HEMCO: Opening /fsx/HEMCO/GMI/v2015-02/gmi.clim.O3.geos5.2x25.nc
HEMCO: Opening /fsx/HEMCO/GMI/v2015-02/gmi.clim.OClO.geos5.2x25.nc
HEMCO: Opening /fsx/HEMCO/GMI/v2015-02/gmi.clim.PAN.geos5.2x25.nc
HEMCO: Opening /fsx/HEMCO/GMI/v2015-02/gmi.clim.NPMN.geos5.2x25.nc
HEMCO: Opening /fsx/HEMCO/GMI/v2015-02/gmi.clim.IPMN.geos5.2x25.nc
HEMCO: Opening /fsx/HEMCO/GMI/v2015-02/gmi.clim.PPN.geos5.2x25.nc
HEMCO: Opening /fsx/HEMCO/GMI/v2015-02/gmi.clim.PRPE.geos5.2x25.nc
HEMCO: Opening /fsx/HEMCO/GMI/v2015-02/gmi.clim.R4N2.geos5.2x25.nc
HEMCO: Opening /fsx/HEMCO/GMI/v2015-02/gmi.clim.RCHO.geos5.2x25.nc
HEMCO: Opening /fsx/HEMCO/GMI/v2015-02/gmi.clim.RIPA.geos5.2x25.nc
HEMCO: Opening /fsx/HEMCO/GMI/v2015-02/gmi.clim.RIPB.geos5.2x25.nc
HEMCO: Opening /fsx/HEMCO/GMI/v2015-02/gmi.clim.RIPD.geos5.2x25.nc
HEMCO: Opening /fsx/HEMCO/GMI/v2015-02/gmi.clim.OH.geos5.2x25.nc
HEMCO: Opening /fsx/HEMCO/NOAA_GMD/v2018-01/monthly.gridded.surface.methane.1979-2020.1x1.nc
HEMCO: Opening /fsx/HEMCO/GEIA/v2014-07/GEIA_monthscal.generic.1x1.nc
HEMCO: Opening /fsx/HEMCO/EMEP/v2015-03/EMEP.Seasonal.geos.1x1.nc
HEMCO: Opening /fsx/HEMCO/BROMINE/v2015-02/BromoCarb_Season.nc
HEMCO: Opening /fsx/HEMCO/EDGARv43/v2016-11/EDGAR_v43.Seasonal.1x1.nc
HEMCO: Opening /fsx/HEMCO/NEI2005/v2014-09/scaling/NEI99.dow.geos.1x1.nc
HEMCO: Opening /fsx/HEMCO/VOLCANO/v2015-02/2009/volc_so2_gen.1x1.47L.200901.nc
HEMCO: Opening /fsx/HEMCO/SOILNOX/v2014-07/soilNOx.fert_res.generic.05x05.nc
 vdinti: pbl height will be limited to bottom           25  model levels. top is
     431.250100000000       hpa
 =================================================
 W R F - G C   T I M E R S
    Domain           1 (Units: s)
 =================================================
  => Coupler Component                       0.062
   -- Physics & Parameterization             0.009
   -- Diagnostics Out                        0.000
  => GEOS-Chem Column                      125.894
  ===> Total Chemistry                     125.956
  => WRF                                    17.322
  ===> Total WRF-GC                        143.278
 max optd  6.0603899E+33
 max taucldi  1.5882534E-07
 max taucldw  4.0798303E-05
 Switching is not necessary as we are already
 in the right domain!
 GIGC_Chunk_Run: Running for in-PET grid #           1
 GIGC_Chunk_Run: Received new grid IM, JM, LM =          15           9
          49
 =================================================
 W R F - G C   T I M E R S
    Domain           1 (Units: s)
 =================================================
  => Coupler Component                       0.094
   -- Physics & Parameterization             0.019
   -- Diagnostics Out                        0.000
  => GEOS-Chem Column                      127.042
  ===> Total Chemistry                     127.136
  => WRF                                    65.034
  ===> Total WRF-GC                        192.170
 max optd  6.0603899E+33
 max taucldi  3.2196272E-07
 max taucldw  6.1265564E-05
 Switching is not necessary as we are already
 in the right domain!
 GIGC_Chunk_Run: Running for in-PET grid #           1
 GIGC_Chunk_Run: Received new grid IM, JM, LM =          15           9
          49
 =================================================
 W R F - G C   T I M E R S
    Domain           1 (Units: s)
 =================================================
  => Coupler Component                       0.119
   -- Physics & Parameterization             0.028
   -- Diagnostics Out                        0.000
  => GEOS-Chem Column                      128.123
  ===> Total Chemistry                     128.242
  => WRF                                    85.738
  ===> Total WRF-GC                        213.980
 max optd  6.0603899E+33
 max taucldi  4.8937835E-07
 max taucldw  7.6229924E-05
 Switching is not necessary as we are already
 in the right domain!
 GIGC_Chunk_Run: Running for in-PET grid #           1
 GIGC_Chunk_Run: Received new grid IM, JM, LM =          15           9
          49
 =================================================
 W R F - G C   T I M E R S
    Domain           1 (Units: s)
 =================================================
  => Coupler Component                       0.147
   -- Physics & Parameterization             0.039
   -- Diagnostics Out                        0.000
  => GEOS-Chem Column                      129.164
  ===> Total Chemistry                     129.311
  => WRF                                   104.744
  ===> Total WRF-GC                        234.054
 max optd  6.0603899E+33
 max taucldi  6.2612088E-07
 max taucldw  8.4450905E-05
 Switching is not necessary as we are already
 in the right domain!
 GIGC_Chunk_Run: Running for in-PET grid #           1
 GIGC_Chunk_Run: Received new grid IM, JM, LM =          15           9
          49
 =================================================
 W R F - G C   T I M E R S
    Domain           1 (Units: s)
 =================================================
  => Coupler Component                       0.175
   -- Physics & Parameterization             0.048
   -- Diagnostics Out                        0.000
  => GEOS-Chem Column                      130.186
  ===> Total Chemistry                     130.361
  => WRF                                   123.350
  ===> Total WRF-GC                        253.711
 max optd  6.0603899E+33
 max taucldi  6.2304059E-07
 max taucldw  6.2282357E-05
 Switching is not necessary as we are already
 in the right domain!
 GIGC_Chunk_Run: Running for in-PET grid #           1
 GIGC_Chunk_Run: Received new grid IM, JM, LM =          15           9
          49
 =================================================
 W R F - G C   T I M E R S
    Domain           1 (Units: s)
 =================================================
  => Coupler Component                       0.210
   -- Physics & Parameterization             0.057
   -- Diagnostics Out                        0.000
  => GEOS-Chem Column                      131.216
  ===> Total Chemistry                     131.425
  => WRF                                   141.824
  ===> Total WRF-GC                        273.249
 max optd  6.0603899E+33
 max taucldi  5.9345064E-07
 max taucldw  5.3869739E-05
 Switching is not necessary as we are already
 in the right domain!
 GIGC_Chunk_Run: Running for in-PET grid #           1
 GIGC_Chunk_Run: Received new grid IM, JM, LM =          15           9
          49
 =================================================
 W R F - G C   T I M E R S
    Domain           1 (Units: s)
 =================================================
  => Coupler Component                       0.240
   -- Physics & Parameterization             0.067
   -- Diagnostics Out                        0.000
  => GEOS-Chem Column                      132.252
  ===> Total Chemistry                     132.492
  => WRF                                   160.307
  ===> Total WRF-GC                        292.798
 max optd  6.0603899E+33
 max taucldi  6.0508199E-07
 max taucldw  5.4375792E-05
 Switching is not necessary as we are already
 in the right domain!
 GIGC_Chunk_Run: Running for in-PET grid #           1
 GIGC_Chunk_Run: Received new grid IM, JM, LM =          15           9
          49
 =================================================
 W R F - G C   T I M E R S
    Domain           1 (Units: s)
 =================================================
  => Coupler Component                       0.271
   -- Physics & Parameterization             0.076
   -- Diagnostics Out                        0.000
  => GEOS-Chem Column                      133.288
  ===> Total Chemistry                     133.560
  => WRF                                   178.713
  ===> Total WRF-GC                        312.272
 max optd  6.0603899E+33
 max taucldi  6.9826478E-07
 max taucldw  5.2142288E-05
 Switching is not necessary as we are already
 in the right domain!
 GIGC_Chunk_Run: Running for in-PET grid #           1
 GIGC_Chunk_Run: Received new grid IM, JM, LM =          15           9
          49
 =================================================
 W R F - G C   T I M E R S
    Domain           1 (Units: s)
 =================================================
  => Coupler Component                       0.307
   -- Physics & Parameterization             0.085
   -- Diagnostics Out                        0.000
  => GEOS-Chem Column                      134.326
  ===> Total Chemistry                     134.633
  => WRF                                   197.112
  ===> Total WRF-GC                        331.745
 max optd  6.0603899E+33
 max taucldi  7.6513402E-07
 max taucldw  5.0518971E-05
 Switching is not necessary as we are already
 in the right domain!
 GIGC_Chunk_Run: Running for in-PET grid #           1
 GIGC_Chunk_Run: Received new grid IM, JM, LM =          15           9
          49
 =================================================
 W R F - G C   T I M E R S
    Domain           1 (Units: s)
 =================================================
  => Coupler Component                       0.341
   -- Physics & Parameterization             0.094
   -- Diagnostics Out                        0.000
  => GEOS-Chem Column                      135.358
  ===> Total Chemistry                     135.699
  => WRF                                   215.562
  ===> Total WRF-GC                        351.260
 max optd  6.0603899E+33
 max taucldi  8.1062916E-07
 max taucldw  4.9457474E-05
 Switching is not necessary as we are already
 in the right domain!
 GIGC_Chunk_Run: Running for in-PET grid #           1
 GIGC_Chunk_Run: Received new grid IM, JM, LM =          15           9
          49
 =================================================
 W R F - G C   T I M E R S
    Domain           1 (Units: s)
 =================================================
  => Coupler Component                       0.375
   -- Physics & Parameterization             0.103
   -- Diagnostics Out                        0.000
  => GEOS-Chem Column                      136.392
  ===> Total Chemistry                     136.767
  => WRF                                   233.944
  ===> Total WRF-GC                        370.711
 max optd  6.0603899E+33
 max taucldi  8.8916727E-07
 max taucldw  4.9800172E-05
 Switching is not necessary as we are already
 in the right domain!
 GIGC_Chunk_Run: Running for in-PET grid #           1
 GIGC_Chunk_Run: Received new grid IM, JM, LM =          15           9
          49
 =================================================
 W R F - G C   T I M E R S
    Domain           1 (Units: s)
 =================================================
  => Coupler Component                       0.412
   -- Physics & Parameterization             0.113
   -- Diagnostics Out                        0.000
  => GEOS-Chem Column                      137.410
  ===> Total Chemistry                     137.822
  => WRF                                   252.190
  ===> Total WRF-GC                        390.012
 HOURLY EMISSIONS UPDATE TIME     3600.0       0.0
mediation_integrate: med_read_wrf_chem_emissions: Read emissions for time 2018-01-01_01:00:00
 max optd  6.0603899E+33
 max taucldi  9.3433920E-07
 max taucldw  4.8855727E-05
 Switching is not necessary as we are already
 in the right domain!
 GIGC_Chunk_Run: Running for in-PET grid #           1
 GIGC_Chunk_Run: Received new grid IM, JM, LM =          15           9
          49
 =================================================
 W R F - G C   T I M E R S
    Domain           1 (Units: s)
 =================================================
  => Coupler Component                       0.448
   -- Physics & Parameterization             0.122
   -- Diagnostics Out                        0.000
  => GEOS-Chem Column                      138.435
  ===> Total Chemistry                     138.883
  => WRF                                   270.557
  ===> Total WRF-GC                        409.440
 max optd  6.0603899E+33
 max taucldi  9.5030566E-07
 max taucldw  4.7999969E-05
 Switching is not necessary as we are already
 in the right domain!
 GIGC_Chunk_Run: Running for in-PET grid #           1
 GIGC_Chunk_Run: Received new grid IM, JM, LM =          15           9
          49
 =================================================
 W R F - G C   T I M E R S
    Domain           1 (Units: s)
 =================================================
  => Coupler Component                       0.486
   -- Physics & Parameterization             0.132
   -- Diagnostics Out                        0.000
  => GEOS-Chem Column                      139.456
  ===> Total Chemistry                     139.943
  => WRF                                   288.896
  ===> Total WRF-GC                        428.839
 max optd  6.0603899E+33
 max taucldi  9.4566394E-07
 max taucldw  4.7659396E-05
 Switching is not necessary as we are already
 in the right domain!
 GIGC_Chunk_Run: Running for in-PET grid #           1
 GIGC_Chunk_Run: Received new grid IM, JM, LM =          15           9
          49
 =================================================
 W R F - G C   T I M E R S
    Domain           1 (Units: s)
 =================================================
  => Coupler Component                       0.528
   -- Physics & Parameterization             0.141
   -- Diagnostics Out                        0.000
  => GEOS-Chem Column                      140.486
  ===> Total Chemistry                     141.014
  => WRF                                   307.125
  ===> Total WRF-GC                        448.139
 max optd  6.0603899E+33
 max taucldi  9.2511334E-07
 max taucldw  4.7713245E-05
 Switching is not necessary as we are already
 in the right domain!
 GIGC_Chunk_Run: Running for in-PET grid #           1
 GIGC_Chunk_Run: Received new grid IM, JM, LM =          15           9
          49
 =================================================
 W R F - G C   T I M E R S
    Domain           1 (Units: s)
 =================================================
  => Coupler Component                       0.559
   -- Physics & Parameterization             0.150
   -- Diagnostics Out                        0.000
  => GEOS-Chem Column                      141.489
  ===> Total Chemistry                     142.048
  => WRF                                   325.415
  ===> Total WRF-GC                        467.463
 max optd  6.0603899E+33
 max taucldi  8.9451294E-07
 max taucldw  4.7886850E-05
 Switching is not necessary as we are already
 in the right domain!
 GIGC_Chunk_Run: Running for in-PET grid #           1
 GIGC_Chunk_Run: Received new grid IM, JM, LM =          15           9
          49
 =================================================
 W R F - G C   T I M E R S
    Domain           1 (Units: s)
 =================================================
  => Coupler Component                       0.596
   -- Physics & Parameterization             0.159
   -- Diagnostics Out                        0.000
  => GEOS-Chem Column                      142.523
  ===> Total Chemistry                     143.119
  => WRF                                   343.704
  ===> Total WRF-GC                        486.823
 max optd  6.0603899E+33
 max taucldi  8.6131200E-07
 max taucldw  4.8404931E-05
 Switching is not necessary as we are already
 in the right domain!
 GIGC_Chunk_Run: Running for in-PET grid #           1
 GIGC_Chunk_Run: Received new grid IM, JM, LM =          15           9
          49
 =================================================
 W R F - G C   T I M E R S
    Domain           1 (Units: s)
 =================================================
  => Coupler Component                       0.639
   -- Physics & Parameterization             0.167
   -- Diagnostics Out                        0.000
  => GEOS-Chem Column                      143.554
  ===> Total Chemistry                     144.194
  => WRF                                   361.919
  ===> Total WRF-GC                        506.113
 max optd  6.0603899E+33
 max taucldi  8.9737676E-07
 max taucldw  4.9110284E-05
 Switching is not necessary as we are already
 in the right domain!
 GIGC_Chunk_Run: Running for in-PET grid #           1
 GIGC_Chunk_Run: Received new grid IM, JM, LM =          15           9
          49
 =================================================
 W R F - G C   T I M E R S
    Domain           1 (Units: s)
 =================================================
  => Coupler Component                       0.683
   -- Physics & Parameterization             0.176
   -- Diagnostics Out                        0.000
  => GEOS-Chem Column                      144.584
  ===> Total Chemistry                     145.267
  => WRF                                   380.188
  ===> Total WRF-GC                        525.455
 max optd  6.0603899E+33
 max taucldi  1.0431401E-06
 max taucldw  5.0469673E-05
 Switching is not necessary as we are already
 in the right domain!
 GIGC_Chunk_Run: Running for in-PET grid #           1
 GIGC_Chunk_Run: Received new grid IM, JM, LM =          15           9
          49
 =================================================
 W R F - G C   T I M E R S
    Domain           1 (Units: s)
 =================================================
  => Coupler Component                       0.720
   -- Physics & Parameterization             0.185
   -- Diagnostics Out                        0.000
  => GEOS-Chem Column                      145.604
  ===> Total Chemistry                     146.324
  => WRF                                   398.567
  ===> Total WRF-GC                        544.891
 max optd  6.0603899E+33
 max taucldi  1.2098596E-06
 max taucldw  5.2220752E-05
 Switching is not necessary as we are already
 in the right domain!
 GIGC_Chunk_Run: Running for in-PET grid #           1
 GIGC_Chunk_Run: Received new grid IM, JM, LM =          15           9
          49
 =================================================
 W R F - G C   T I M E R S
    Domain           1 (Units: s)
 =================================================
  => Coupler Component                       0.763
   -- Physics & Parameterization             0.194
   -- Diagnostics Out                        0.000
  => GEOS-Chem Column                      146.635
  ===> Total Chemistry                     147.398
  => WRF                                   416.696
  ===> Total WRF-GC                        564.094
 max optd  6.0603899E+33
 max taucldi  1.3787200E-06
 max taucldw  5.4095053E-05
 Switching is not necessary as we are already
 in the right domain!
 GIGC_Chunk_Run: Running for in-PET grid #           1
 GIGC_Chunk_Run: Received new grid IM, JM, LM =          15           9
          49
 =================================================
 W R F - G C   T I M E R S
    Domain           1 (Units: s)
 =================================================
  => Coupler Component                       0.799
   -- Physics & Parameterization             0.203
   -- Diagnostics Out                        0.000
  => GEOS-Chem Column                      147.641
  ===> Total Chemistry                     148.440
  => WRF                                   434.884
  ===> Total WRF-GC                        583.324
 max optd  6.0603899E+33
 max taucldi  1.5256506E-06
 max taucldw  5.6471996E-05
 Switching is not necessary as we are already
 in the right domain!
 GIGC_Chunk_Run: Running for in-PET grid #           1
 GIGC_Chunk_Run: Received new grid IM, JM, LM =          15           9
          49
 =================================================
 W R F - G C   T I M E R S
    Domain           1 (Units: s)
 =================================================
  => Coupler Component                       0.836
   -- Physics & Parameterization             0.212
   -- Diagnostics Out                        0.000
  => GEOS-Chem Column                      148.654
  ===> Total Chemistry                     149.489
  => WRF                                   453.236
  ===> Total WRF-GC                        602.725
 max optd  6.0603899E+33
 max taucldi  1.6334285E-06
 max taucldw  5.8214260E-05
 Switching is not necessary as we are already
 in the right domain!
 GIGC_Chunk_Run: Running for in-PET grid #           1
 GIGC_Chunk_Run: Received new grid IM, JM, LM =          15           9
          49
 =================================================
 W R F - G C   T I M E R S
    Domain           1 (Units: s)
 =================================================
  => Coupler Component                       0.880
   -- Physics & Parameterization             0.222
   -- Diagnostics Out                        0.000
  => GEOS-Chem Column                      149.684
  ===> Total Chemistry                     150.564
  => WRF                                   471.454
  ===> Total WRF-GC                        622.018
 HOURLY EMISSIONS UPDATE TIME     7200.0       0.0
mediation_integrate: med_read_wrf_chem_emissions: Read emissions for time 2018-01-01_02:00:00
 max optd  6.0603899E+33
 max taucldi  1.8165485E-06
 max taucldw  6.0052520E-05
 Switching is not necessary as we are already
 in the right domain!
 GIGC_Chunk_Run: Running for in-PET grid #           1
 GIGC_Chunk_Run: Received new grid IM, JM, LM =          15           9
          49
 =================================================
 W R F - G C   T I M E R S
    Domain           1 (Units: s)
 =================================================
  => Coupler Component                       0.916
   -- Physics & Parameterization             0.231
   -- Diagnostics Out                        0.000
  => GEOS-Chem Column                      150.689
  ===> Total Chemistry                     151.605
  => WRF                                   489.663
  ===> Total WRF-GC                        641.268
 max optd  6.0603899E+33
 max taucldi  2.2187551E-06
 max taucldw  6.1398758E-05
 Switching is not necessary as we are already
 in the right domain!
 GIGC_Chunk_Run: Running for in-PET grid #           1
 GIGC_Chunk_Run: Received new grid IM, JM, LM =          15           9
          49
 =================================================
 W R F - G C   T I M E R S
    Domain           1 (Units: s)
 =================================================
  => Coupler Component                       0.960
   -- Physics & Parameterization             0.240
   -- Diagnostics Out                        0.000
  => GEOS-Chem Column                      151.715
  ===> Total Chemistry                     152.675
  => WRF                                   507.947
  ===> Total WRF-GC                        660.622
 max optd  6.0603899E+33
 max taucldi  2.6454459E-06
 max taucldw  6.2015883E-05
 Switching is not necessary as we are already
 in the right domain!
 GIGC_Chunk_Run: Running for in-PET grid #           1
 GIGC_Chunk_Run: Received new grid IM, JM, LM =          15           9
          49
 =================================================
 W R F - G C   T I M E R S
    Domain           1 (Units: s)
 =================================================
  => Coupler Component                       1.001
   -- Physics & Parameterization             0.249
   -- Diagnostics Out                        0.000
  => GEOS-Chem Column                      152.741
  ===> Total Chemistry                     153.741
  => WRF                                   526.078
  ===> Total WRF-GC                        679.819
 max optd  6.0603899E+33
 max taucldi  3.0462459E-06
 max taucldw  6.2192143E-05
 Switching is not necessary as we are already
 in the right domain!
 GIGC_Chunk_Run: Running for in-PET grid #           1
 GIGC_Chunk_Run: Received new grid IM, JM, LM =          15           9
          49
 =================================================
 W R F - G C   T I M E R S
    Domain           1 (Units: s)
 =================================================
  => Coupler Component                       1.043
   -- Physics & Parameterization             0.258
   -- Diagnostics Out                        0.000
  => GEOS-Chem Column                      153.775
  ===> Total Chemistry                     154.817
  => WRF                                   544.220
  ===> Total WRF-GC                        699.038
 max optd  6.0603899E+33
 max taucldi  3.3845270E-06
 max taucldw  6.2783263E-05
 Switching is not necessary as we are already
 in the right domain!
 GIGC_Chunk_Run: Running for in-PET grid #           1
 GIGC_Chunk_Run: Received new grid IM, JM, LM =          15           9
          49
 =================================================
 W R F - G C   T I M E R S
    Domain           1 (Units: s)
 =================================================
  => Coupler Component                       1.084
   -- Physics & Parameterization             0.268
   -- Diagnostics Out                        0.000
  => GEOS-Chem Column                      154.788
  ===> Total Chemistry                     155.872
  => WRF                                   562.363
  ===> Total WRF-GC                        718.235
 max optd  6.0603899E+33
 max taucldi  3.6327210E-06
 max taucldw  6.2725048E-05
 Switching is not necessary as we are already
 in the right domain!
 GIGC_Chunk_Run: Running for in-PET grid #           1
 GIGC_Chunk_Run: Received new grid IM, JM, LM =          15           9
          49
 =================================================
 W R F - G C   T I M E R S
    Domain           1 (Units: s)
 =================================================
  => Coupler Component                       1.128
   -- Physics & Parameterization             0.277
   -- Diagnostics Out                        0.000
  => GEOS-Chem Column                      155.810
  ===> Total Chemistry                     156.938
  => WRF                                   580.549
  ===> Total WRF-GC                        737.486
 max optd  6.0603899E+33
 max taucldi  3.8042108E-06
 max taucldw  6.2819177E-05
 Switching is not necessary as we are already
 in the right domain!
 GIGC_Chunk_Run: Running for in-PET grid #           1
 GIGC_Chunk_Run: Received new grid IM, JM, LM =          15           9
          49
 =================================================
 W R F - G C   T I M E R S
    Domain           1 (Units: s)
 =================================================
  => Coupler Component                       1.171
   -- Physics & Parameterization             0.286
   -- Diagnostics Out                        0.000
  => GEOS-Chem Column                      156.822
  ===> Total Chemistry                     157.993
  => WRF                                   598.723
  ===> Total WRF-GC                        756.715
 max optd  6.0603899E+33
 max taucldi  3.8800545E-06
 max taucldw  6.2957180E-05
 Switching is not necessary as we are already
 in the right domain!
 GIGC_Chunk_Run: Running for in-PET grid #           1
 GIGC_Chunk_Run: Received new grid IM, JM, LM =          15           9
          49
 =================================================
 W R F - G C   T I M E R S
    Domain           1 (Units: s)
 =================================================
  => Coupler Component                       1.213
   -- Physics & Parameterization             0.295
   -- Diagnostics Out                        0.000
  => GEOS-Chem Column                      157.841
  ===> Total Chemistry                     159.054
  => WRF                                   616.839
  ===> Total WRF-GC                        775.893
 max optd  6.0603899E+33
 max taucldi  3.9225115E-06
 max taucldw  6.2975989E-05
 Switching is not necessary as we are already
 in the right domain!
 GIGC_Chunk_Run: Running for in-PET grid #           1
 GIGC_Chunk_Run: Received new grid IM, JM, LM =          15           9
          49
 =================================================
 W R F - G C   T I M E R S
    Domain           1 (Units: s)
 =================================================
  => Coupler Component                       1.257
   -- Physics & Parameterization             0.304
   -- Diagnostics Out                        0.000
  => GEOS-Chem Column                      158.867
  ===> Total Chemistry                     160.123
  => WRF                                   634.971
  ===> Total WRF-GC                        795.095
 max optd  6.0603899E+33
 max taucldi  3.9985234E-06
 max taucldw  6.2898398E-05
 Switching is not necessary as we are already
 in the right domain!
 GIGC_Chunk_Run: Running for in-PET grid #           1
 GIGC_Chunk_Run: Received new grid IM, JM, LM =          15           9
          49
 =================================================
 W R F - G C   T I M E R S
    Domain           1 (Units: s)
 =================================================
  => Coupler Component                       1.297
   -- Physics & Parameterization             0.314
   -- Diagnostics Out                        0.000
  => GEOS-Chem Column                      159.881
  ===> Total Chemistry                     161.178
  => WRF                                   653.133
  ===> Total WRF-GC                        814.311
 max optd  6.0603899E+33
 max taucldi  4.0023192E-06
 max taucldw  6.2966632E-05
 Switching is not necessary as we are already
 in the right domain!
 GIGC_Chunk_Run: Running for in-PET grid #           1
 GIGC_Chunk_Run: Received new grid IM, JM, LM =          15           9
          49
 =================================================
 W R F - G C   T I M E R S
    Domain           1 (Units: s)
 =================================================
  => Coupler Component                       1.341
   -- Physics & Parameterization             0.323
   -- Diagnostics Out                        0.000
  => GEOS-Chem Column                      160.910
  ===> Total Chemistry                     162.250
  => WRF                                   671.237
  ===> Total WRF-GC                        833.487
 max optd  6.0603899E+33
 max taucldi  3.9586112E-06
 max taucldw  6.2899489E-05
 Switching is not necessary as we are already
 in the right domain!
 GIGC_Chunk_Run: Running for in-PET grid #           1
 GIGC_Chunk_Run: Received new grid IM, JM, LM =          15           9
          49
 =================================================
 W R F - G C   T I M E R S
    Domain           1 (Units: s)
 =================================================
  => Coupler Component                       1.377
   -- Physics & Parameterization             0.333
   -- Diagnostics Out                        0.000
  => GEOS-Chem Column                      161.917
  ===> Total Chemistry                     163.294
  => WRF                                   689.317
  ===> Total WRF-GC                        852.611
 HOURLY EMISSIONS UPDATE TIME    10800.0       0.0
mediation_integrate: med_read_wrf_chem_emissions: Read emissions for time 2018-01-01_03:00:00
 max optd  6.0603899E+33
 max taucldi  3.8902631E-06
 max taucldw  6.2910542E-05
 Switching is not necessary as we are already
 in the right domain!
 GIGC_Chunk_Run: Running for in-PET grid #           1
 GIGC_Chunk_Run: Received new grid IM, JM, LM =          15           9
          49
 =================================================
 W R F - G C   T I M E R S
    Domain           1 (Units: s)
 =================================================
  => Coupler Component                       1.421
   -- Physics & Parameterization             0.342
   -- Diagnostics Out                        0.000
  => GEOS-Chem Column                      162.947
  ===> Total Chemistry                     164.368
  => WRF                                   707.514
  ===> Total WRF-GC                        871.882
 max optd  6.0603899E+33
 max taucldi  3.8189214E-06
 max taucldw  6.3131505E-05
 Switching is not necessary as we are already
 in the right domain!
 GIGC_Chunk_Run: Running for in-PET grid #           1
 GIGC_Chunk_Run: Received new grid IM, JM, LM =          15           9
          49
 =================================================
 W R F - G C   T I M E R S
    Domain           1 (Units: s)
 =================================================
  => Coupler Component                       1.465
   -- Physics & Parameterization             0.351
   -- Diagnostics Out                        0.000
  => GEOS-Chem Column                      163.977
  ===> Total Chemistry                     165.442
  => WRF                                   725.615
  ===> Total WRF-GC                        891.057
 max optd  6.0603899E+33
 max taucldi  3.7589321E-06
 max taucldw  6.3178879E-05
 Switching is not necessary as we are already
 in the right domain!
 GIGC_Chunk_Run: Running for in-PET grid #           1
 GIGC_Chunk_Run: Received new grid IM, JM, LM =          15           9
          49
 =================================================
 W R F - G C   T I M E R S
    Domain           1 (Units: s)
 =================================================
  => Coupler Component                       1.509
   -- Physics & Parameterization             0.360
   -- Diagnostics Out                        0.000
  => GEOS-Chem Column                      165.004
  ===> Total Chemistry                     166.513
  => WRF                                   743.744
  ===> Total WRF-GC                        910.257
 max optd  6.0603899E+33
 max taucldi  3.7171817E-06
 max taucldw  6.3399100E-05
 Switching is not necessary as we are already
 in the right domain!
 GIGC_Chunk_Run: Running for in-PET grid #           1
 GIGC_Chunk_Run: Received new grid IM, JM, LM =          15           9
          49
 =================================================
 W R F - G C   T I M E R S
    Domain           1 (Units: s)
 =================================================
  => Coupler Component                       1.545
   -- Physics & Parameterization             0.370
   -- Diagnostics Out                        0.000
  => GEOS-Chem Column                      166.011
  ===> Total Chemistry                     167.556
  => WRF                                   761.848
  ===> Total WRF-GC                        929.403
 max optd  6.0603899E+33
 max taucldi  3.6959166E-06
 max taucldw  6.3536012E-05
 Switching is not necessary as we are already
 in the right domain!
 GIGC_Chunk_Run: Running for in-PET grid #           1
 GIGC_Chunk_Run: Received new grid IM, JM, LM =          15           9
          49
 =================================================
 W R F - G C   T I M E R S
    Domain           1 (Units: s)
 =================================================
  => Coupler Component                       1.588
   -- Physics & Parameterization             0.379
   -- Diagnostics Out                        0.000
  => GEOS-Chem Column                      167.029
  ===> Total Chemistry                     168.616
  => WRF                                   779.961
  ===> Total WRF-GC                        948.577
 max optd  6.0603899E+33
 max taucldi  3.6922129E-06
 max taucldw  6.3626685E-05
 Switching is not necessary as we are already
 in the right domain!
 GIGC_Chunk_Run: Running for in-PET grid #           1
 GIGC_Chunk_Run: Received new grid IM, JM, LM =          15           9
          49
 =================================================
 W R F - G C   T I M E R S
    Domain           1 (Units: s)
 =================================================
  => Coupler Component                       1.632
   -- Physics & Parameterization             0.389
   -- Diagnostics Out                        0.000
  => GEOS-Chem Column                      168.048
  ===> Total Chemistry                     169.680
  => WRF                                   798.341
  ===> Total WRF-GC                        968.021
 max optd  6.0603899E+33
 max taucldi  3.7050793E-06
 max taucldw  6.4012042E-05
 Switching is not necessary as we are already
 in the right domain!
 GIGC_Chunk_Run: Running for in-PET grid #           1
 GIGC_Chunk_Run: Received new grid IM, JM, LM =          15           9
          49
 =================================================
 W R F - G C   T I M E R S
    Domain           1 (Units: s)
 =================================================
  => Coupler Component                       1.672
   -- Physics & Parameterization             0.398
   -- Diagnostics Out                        0.000
  => GEOS-Chem Column                      169.050
  ===> Total Chemistry                     170.722
  => WRF                                   816.515
  ===> Total WRF-GC                        987.238
 max optd  6.0603899E+33
 max taucldi  3.7275443E-06
 max taucldw  6.4375141E-05
 Switching is not necessary as we are already
 in the right domain!
 GIGC_Chunk_Run: Running for in-PET grid #           1
 GIGC_Chunk_Run: Received new grid IM, JM, LM =          15           9
          49
 =================================================
 W R F - G C   T I M E R S
    Domain           1 (Units: s)
 =================================================
  => Coupler Component                       1.707
   -- Physics & Parameterization             0.408
   -- Diagnostics Out                        0.000
  => GEOS-Chem Column                      170.062
  ===> Total Chemistry                     171.769
  => WRF                                   834.611
  ===> Total WRF-GC                       1006.380
 max optd  6.0603899E+33
 max taucldi  1.2098657E-04
 max taucldw  6.4921020E-05
 Switching is not necessary as we are already
 in the right domain!
 GIGC_Chunk_Run: Running for in-PET grid #           1
 GIGC_Chunk_Run: Received new grid IM, JM, LM =          15           9
          49
 =================================================
 W R F - G C   T I M E R S
    Domain           1 (Units: s)
 =================================================
  => Coupler Component                       1.743
   -- Physics & Parameterization             0.417
   -- Diagnostics Out                        0.000
  => GEOS-Chem Column                      171.070
  ===> Total Chemistry                     172.812
  => WRF                                   852.874
  ===> Total WRF-GC                       1025.686
 max optd  6.0603899E+33
 max taucldi  3.1805111E-04
 max taucldw  6.5425178E-05
 Switching is not necessary as we are already
 in the right domain!
 GIGC_Chunk_Run: Running for in-PET grid #           1
 GIGC_Chunk_Run: Received new grid IM, JM, LM =          15           9
          49
 =================================================
 W R F - G C   T I M E R S
    Domain           1 (Units: s)
 =================================================
  => Coupler Component                       1.787
   -- Physics & Parameterization             0.427
   -- Diagnostics Out                        0.000
  => GEOS-Chem Column                      172.082
  ===> Total Chemistry                     173.869
  => WRF                                   871.076
  ===> Total WRF-GC                       1044.945
 max optd  6.0603899E+33
 max taucldi  4.0579188E-04
 max taucldw  6.5742322E-05
 Switching is not necessary as we are already
 in the right domain!
 GIGC_Chunk_Run: Running for in-PET grid #           1
 GIGC_Chunk_Run: Received new grid IM, JM, LM =          15           9
          49
 =================================================
 W R F - G C   T I M E R S
    Domain           1 (Units: s)
 =================================================
  => Coupler Component                       1.824
   -- Physics & Parameterization             0.436
   -- Diagnostics Out                        0.000
  => GEOS-Chem Column                      173.095
  ===> Total Chemistry                     174.920
  => WRF                                   889.198
  ===> Total WRF-GC                       1064.117
 max optd  6.0603899E+33
 max taucldi  4.0604253E-04
 max taucldw  6.6111264E-05
 Switching is not necessary as we are already
 in the right domain!
 GIGC_Chunk_Run: Running for in-PET grid #           1
 GIGC_Chunk_Run: Received new grid IM, JM, LM =          15           9
          49
 =================================================
 W R F - G C   T I M E R S
    Domain           1 (Units: s)
 =================================================
  => Coupler Component                       1.863
   -- Physics & Parameterization             0.445
   -- Diagnostics Out                        0.000
  => GEOS-Chem Column                      174.100
  ===> Total Chemistry                     175.963
  => WRF                                   907.380
  ===> Total WRF-GC                       1083.343
 HOURLY EMISSIONS UPDATE TIME    14400.0       0.0
mediation_integrate: med_read_wrf_chem_emissions: Read emissions for time 2018-01-01_04:00:00
 max optd  6.0603899E+33
 max taucldi  3.9666347E-04
 max taucldw  6.6501525E-05
 Switching is not necessary as we are already
 in the right domain!
 GIGC_Chunk_Run: Running for in-PET grid #           1
 GIGC_Chunk_Run: Received new grid IM, JM, LM =          15           9
          49
 =================================================
 W R F - G C   T I M E R S
    Domain           1 (Units: s)
 =================================================
  => Coupler Component                       1.902
   -- Physics & Parameterization             0.455
   -- Diagnostics Out                        0.000
  => GEOS-Chem Column                      175.112
  ===> Total Chemistry                     177.014
  => WRF                                   925.569
  ===> Total WRF-GC                       1102.583
 max optd  6.0603899E+33
 max taucldi  3.9383039E-04
 max taucldw  6.7193207E-05
 Switching is not necessary as we are already
 in the right domain!
 GIGC_Chunk_Run: Running for in-PET grid #           1
 GIGC_Chunk_Run: Received new grid IM, JM, LM =          15           9
          49
 =================================================
 W R F - G C   T I M E R S
    Domain           1 (Units: s)
 =================================================
  => Coupler Component                       1.938
   -- Physics & Parameterization             0.465
   -- Diagnostics Out                        0.000
  => GEOS-Chem Column                      176.117
  ===> Total Chemistry                     178.056
  => WRF                                   943.733
  ===> Total WRF-GC                       1121.788
 max optd  6.0603899E+33
 max taucldi  3.9645785E-04
 max taucldw  6.7887719E-05
 Switching is not necessary as we are already
 in the right domain!
 GIGC_Chunk_Run: Running for in-PET grid #           1
 GIGC_Chunk_Run: Received new grid IM, JM, LM =          15           9
          49
 =================================================
 W R F - G C   T I M E R S
    Domain           1 (Units: s)
 =================================================
  => Coupler Component                       1.981
   -- Physics & Parameterization             0.474
   -- Diagnostics Out                        0.000
  => GEOS-Chem Column                      177.130
  ===> Total Chemistry                     179.111
  => WRF                                   962.020
  ===> Total WRF-GC                       1141.131
 max optd  6.0603899E+33
 max taucldi  4.0822022E-04
 max taucldw  6.8806119E-05
 Switching is not necessary as we are already
 in the right domain!
 GIGC_Chunk_Run: Running for in-PET grid #           1
 GIGC_Chunk_Run: Received new grid IM, JM, LM =          15           9
          49
 =================================================
 W R F - G C   T I M E R S
    Domain           1 (Units: s)
 =================================================
  => Coupler Component                       2.028
   -- Physics & Parameterization             0.483
   -- Diagnostics Out                        0.000
  => GEOS-Chem Column                      178.150
  ===> Total Chemistry                     180.178
  => WRF                                   980.178
  ===> Total WRF-GC                       1160.356
 max optd  6.0603899E+33
 max taucldi  4.3023480E-04
 max taucldw  6.9596201E-05
 Switching is not necessary as we are already
 in the right domain!
 GIGC_Chunk_Run: Running for in-PET grid #           1
 GIGC_Chunk_Run: Received new grid IM, JM, LM =          15           9
          49
 =================================================
 W R F - G C   T I M E R S
    Domain           1 (Units: s)
 =================================================
  => Coupler Component                       2.078
   -- Physics & Parameterization             0.492
   -- Diagnostics Out                        0.000
  => GEOS-Chem Column                      179.175
  ===> Total Chemistry                     181.253
  => WRF                                   998.357
  ===> Total WRF-GC                       1179.611
 max optd  6.0603899E+33
 max taucldi  5.1008019E-04
 max taucldw  7.0658985E-05
 Switching is not necessary as we are already
 in the right domain!
 GIGC_Chunk_Run: Running for in-PET grid #           1
 GIGC_Chunk_Run: Received new grid IM, JM, LM =          15           9
          49
 =================================================
 W R F - G C   T I M E R S
    Domain           1 (Units: s)
 =================================================
  => Coupler Component                       2.122
   -- Physics & Parameterization             0.501
   -- Diagnostics Out                        0.000
  => GEOS-Chem Column                      180.200
  ===> Total Chemistry                     182.322
  => WRF                                  1016.518
  ===> Total WRF-GC                       1198.839
 max optd  6.0603899E+33
 max taucldi  6.5645413E-04
 max taucldw  7.1846327E-05
 Switching is not necessary as we are already
 in the right domain!
 GIGC_Chunk_Run: Running for in-PET grid #           1
 GIGC_Chunk_Run: Received new grid IM, JM, LM =          15           9
          49
 =================================================
 W R F - G C   T I M E R S
    Domain           1 (Units: s)
 =================================================
  => Coupler Component                       2.165
   -- Physics & Parameterization             0.511
   -- Diagnostics Out                        0.000
  => GEOS-Chem Column                      181.223
  ===> Total Chemistry                     183.388
  => WRF                                  1034.720
  ===> Total WRF-GC                       1218.108
 max optd  6.0603899E+33
 max taucldi  7.9086516E-04
 max taucldw  7.2995688E-05
 Switching is not necessary as we are already
 in the right domain!
 GIGC_Chunk_Run: Running for in-PET grid #           1
 GIGC_Chunk_Run: Received new grid IM, JM, LM =          15           9
          49
 =================================================
 W R F - G C   T I M E R S
    Domain           1 (Units: s)
 =================================================
  => Coupler Component                       2.198
   -- Physics & Parameterization             0.520
   -- Diagnostics Out                        0.000
  => GEOS-Chem Column                      182.230
  ===> Total Chemistry                     184.428
  => WRF                                  1052.845
  ===> Total WRF-GC                       1237.273
 max optd  6.0603899E+33
 max taucldi  8.9145044E-04
 max taucldw  7.4254312E-05
 Switching is not necessary as we are already
 in the right domain!
 GIGC_Chunk_Run: Running for in-PET grid #           1
 GIGC_Chunk_Run: Received new grid IM, JM, LM =          15           9
          49
 =================================================
 W R F - G C   T I M E R S
    Domain           1 (Units: s)
 =================================================
  => Coupler Component                       2.240
   -- Physics & Parameterization             0.529
   -- Diagnostics Out                        0.000
  => GEOS-Chem Column                      183.243
  ===> Total Chemistry                     185.483
  => WRF                                  1071.053
  ===> Total WRF-GC                       1256.536
 max optd  6.0603899E+33
 max taucldi  9.5989800E-04
 max taucldw  7.5166150E-05
 Switching is not necessary as we are already
 in the right domain!
 GIGC_Chunk_Run: Running for in-PET grid #           1
 GIGC_Chunk_Run: Received new grid IM, JM, LM =          15           9
          49
 =================================================
 W R F - G C   T I M E R S
    Domain           1 (Units: s)
 =================================================
  => Coupler Component                       2.284
   -- Physics & Parameterization             0.538
   -- Diagnostics Out                        0.000
  => GEOS-Chem Column                      184.277
  ===> Total Chemistry                     186.560
  => WRF                                  1089.216
  ===> Total WRF-GC                       1275.777
 max optd  6.0603899E+33
 max taucldi  1.0008638E-03
 max taucldw  7.5989090E-05
 Switching is not necessary as we are already
 in the right domain!
 GIGC_Chunk_Run: Running for in-PET grid #           1
 GIGC_Chunk_Run: Received new grid IM, JM, LM =          15           9
          49
 =================================================
 W R F - G C   T I M E R S
    Domain           1 (Units: s)
 =================================================
  => Coupler Component                       2.322
   -- Physics & Parameterization             0.548
   -- Diagnostics Out                        0.000
  => GEOS-Chem Column                      185.287
  ===> Total Chemistry                     187.608
  => WRF                                  1107.326
  ===> Total WRF-GC                       1294.934
 max optd  6.0603899E+33
 max taucldi  1.0287750E-03
 max taucldw  7.6799275E-05
 Switching is not necessary as we are already
 in the right domain!
 GIGC_Chunk_Run: Running for in-PET grid #           1
 GIGC_Chunk_Run: Received new grid IM, JM, LM =          15           9
          49
 =================================================
 W R F - G C   T I M E R S
    Domain           1 (Units: s)
 =================================================
  => Coupler Component                       2.366
   -- Physics & Parameterization             0.557
   -- Diagnostics Out                        0.000
  => GEOS-Chem Column                      186.301
  ===> Total Chemistry                     188.667
  => WRF                                  1125.427
  ===> Total WRF-GC                       1314.094
 HOURLY EMISSIONS UPDATE TIME    18000.0       0.0
mediation_integrate: med_read_wrf_chem_emissions: Read emissions for time 2018-01-01_05:00:00
 max optd  6.0603899E+33
 max taucldi  1.0417600E-03
 max taucldw  7.7628421E-05
 Switching is not necessary as we are already
 in the right domain!
 GIGC_Chunk_Run: Running for in-PET grid #           1
 GIGC_Chunk_Run: Received new grid IM, JM, LM =          15           9
          49
 =================================================
 W R F - G C   T I M E R S
    Domain           1 (Units: s)
 =================================================
  => Coupler Component                       2.407
   -- Physics & Parameterization             0.566
   -- Diagnostics Out                        0.000
  => GEOS-Chem Column                      187.317
  ===> Total Chemistry                     189.725
  => WRF                                  1143.620
  ===> Total WRF-GC                       1333.344
 max optd  6.0603899E+33
 max taucldi  1.0410211E-03
 max taucldw  7.8396537E-05
 Switching is not necessary as we are already
 in the right domain!
 GIGC_Chunk_Run: Running for in-PET grid #           1
 GIGC_Chunk_Run: Received new grid IM, JM, LM =          15           9
          49
 =================================================
 W R F - G C   T I M E R S
    Domain           1 (Units: s)
 =================================================
  => Coupler Component                       2.442
   -- Physics & Parameterization             0.575
   -- Diagnostics Out                        0.000
  => GEOS-Chem Column                      188.325
  ===> Total Chemistry                     190.767
  => WRF                                  1161.743
  ===> Total WRF-GC                       1352.511
 max optd  6.0603899E+33
 max taucldi  1.0300571E-03
 max taucldw  7.9137702E-05
 Switching is not necessary as we are already
 in the right domain!
 GIGC_Chunk_Run: Running for in-PET grid #           1
 GIGC_Chunk_Run: Received new grid IM, JM, LM =          15           9
          49
 =================================================
 W R F - G C   T I M E R S
    Domain           1 (Units: s)
 =================================================
  => Coupler Component                       2.481
   -- Physics & Parameterization             0.585
   -- Diagnostics Out                        0.000
  => GEOS-Chem Column                      189.333
  ===> Total Chemistry                     191.814
  => WRF                                  1179.898
  ===> Total WRF-GC                       1371.712
 max optd  6.0603899E+33
 max taucldi  1.0100602E-03
 max taucldw  7.9805111E-05
 Switching is not necessary as we are already
 in the right domain!
 GIGC_Chunk_Run: Running for in-PET grid #           1
 GIGC_Chunk_Run: Received new grid IM, JM, LM =          15           9
          49
 =================================================
 W R F - G C   T I M E R S
    Domain           1 (Units: s)
 =================================================
  => Coupler Component                       2.523
   -- Physics & Parameterization             0.594
   -- Diagnostics Out                        0.000
  => GEOS-Chem Column                      190.346
  ===> Total Chemistry                     192.869
  => WRF                                  1198.085
  ===> Total WRF-GC                       1390.954
 max optd  6.0603899E+33
 max taucldi  9.5773319E-04
 max taucldw  8.0560116E-05
 Switching is not necessary as we are already
 in the right domain!
 GIGC_Chunk_Run: Running for in-PET grid #           1
 GIGC_Chunk_Run: Received new grid IM, JM, LM =          15           9
          49
 =================================================
 W R F - G C   T I M E R S
    Domain           1 (Units: s)
 =================================================
  => Coupler Component                       2.566
   -- Physics & Parameterization             0.604
   -- Diagnostics Out                        0.000
  => GEOS-Chem Column                      191.368
  ===> Total Chemistry                     193.934
  => WRF                                  1216.310
  ===> Total WRF-GC                       1410.244
 max optd  6.0603899E+33
 max taucldi  8.5147424E-04
 max taucldw  8.1085869E-05
 Switching is not necessary as we are already
 in the right domain!
 GIGC_Chunk_Run: Running for in-PET grid #           1
 GIGC_Chunk_Run: Received new grid IM, JM, LM =          15           9
          49
 =================================================
 W R F - G C   T I M E R S
    Domain           1 (Units: s)
 =================================================
  => Coupler Component                       2.601
   -- Physics & Parameterization             0.613
   -- Diagnostics Out                        0.000
  => GEOS-Chem Column                      192.366
  ===> Total Chemistry                     194.967
  => WRF                                  1234.411
  ===> Total WRF-GC                       1429.378
 max optd  6.0603899E+33
 max taucldi  5.5210426E-04
 max taucldw  8.1546401E-05
 Switching is not necessary as we are already
 in the right domain!
 GIGC_Chunk_Run: Running for in-PET grid #           1
 GIGC_Chunk_Run: Received new grid IM, JM, LM =          15           9
          49
 =================================================
 W R F - G C   T I M E R S
    Domain           1 (Units: s)
 =================================================
  => Coupler Component                       2.641
   -- Physics & Parameterization             0.623
   -- Diagnostics Out                        0.000
  => GEOS-Chem Column                      193.378
  ===> Total Chemistry                     196.018
  => WRF                                  1252.693
  ===> Total WRF-GC                       1448.711
 max optd  6.0603899E+33
 max taucldi  2.3926108E-04
 max taucldw  8.2008795E-05
 Switching is not necessary as we are already
 in the right domain!
 GIGC_Chunk_Run: Running for in-PET grid #           1
 GIGC_Chunk_Run: Received new grid IM, JM, LM =          15           9
          49
 =================================================
 W R F - G C   T I M E R S
    Domain           1 (Units: s)
 =================================================
  => Coupler Component                       2.683
   -- Physics & Parameterization             0.632
   -- Diagnostics Out                        0.000
  => GEOS-Chem Column                      194.398
  ===> Total Chemistry                     197.081
  => WRF                                  1270.819
  ===> Total WRF-GC                       1467.900
 max optd  6.0603899E+33
 max taucldi  9.3519724E-05
 max taucldw  8.2411752E-05
 Switching is not necessary as we are already
 in the right domain!
 GIGC_Chunk_Run: Running for in-PET grid #           1
 GIGC_Chunk_Run: Received new grid IM, JM, LM =          15           9
          49
 =================================================
 W R F - G C   T I M E R S
    Domain           1 (Units: s)
 =================================================
  => Coupler Component                       2.728
   -- Physics & Parameterization             0.641
   -- Diagnostics Out                        0.000
  => GEOS-Chem Column                      195.417
  ===> Total Chemistry                     198.145
  => WRF                                  1289.029
  ===> Total WRF-GC                       1487.174
 max optd  6.0603899E+33
 max taucldi  6.0515082E-05
 max taucldw  8.2941478E-05
 Switching is not necessary as we are already
 in the right domain!
 GIGC_Chunk_Run: Running for in-PET grid #           1
 GIGC_Chunk_Run: Received new grid IM, JM, LM =          15           9
          49
 =================================================
 W R F - G C   T I M E R S
    Domain           1 (Units: s)
 =================================================
  => Coupler Component                       2.773
   -- Physics & Parameterization             0.650
   -- Diagnostics Out                        0.000
  => GEOS-Chem Column                      196.442
  ===> Total Chemistry                     199.215
  => WRF                                  1307.457
  ===> Total WRF-GC                       1506.672
 max optd  6.0603899E+33
 max taucldi  3.8893199E-05
 max taucldw  8.3247876E-05
 Switching is not necessary as we are already
 in the right domain!
 GIGC_Chunk_Run: Running for in-PET grid #           1
 GIGC_Chunk_Run: Received new grid IM, JM, LM =          15           9
          49
 =================================================
 W R F - G C   T I M E R S
    Domain           1 (Units: s)
 =================================================
  => Coupler Component                       2.810
   -- Physics & Parameterization             0.660
   -- Diagnostics Out                        0.000
  => GEOS-Chem Column                      197.453
  ===> Total Chemistry                     200.264
  => WRF                                  1325.602
  ===> Total WRF-GC                       1525.865
 max optd  6.0603899E+33
 max taucldi  2.5328063E-05
 max taucldw  8.3388695E-05
 Switching is not necessary as we are already
 in the right domain!
 GIGC_Chunk_Run: Running for in-PET grid #           1
 GIGC_Chunk_Run: Received new grid IM, JM, LM =          15           9
          49
 =================================================
 W R F - G C   T I M E R S
    Domain           1 (Units: s)
 =================================================
  => Coupler Component                       2.852
   -- Physics & Parameterization             0.669
   -- Diagnostics Out                        0.000
  => GEOS-Chem Column                      198.469
  ===> Total Chemistry                     201.321
  => WRF                                  1343.770
  ===> Total WRF-GC                       1545.091
 HOURLY EMISSIONS UPDATE TIME    21600.0       0.0
mediation_integrate: med_read_wrf_chem_emissions: Read emissions for time 2018-01-01_06:00:00
 max optd  6.0603899E+33
 max taucldi  1.3087966E-05
 max taucldw  8.3252911E-05
 Switching is not necessary as we are already
 in the right domain!
 GIGC_Chunk_Run: Running for in-PET grid #           1
 GIGC_Chunk_Run: Received new grid IM, JM, LM =          15           9
          49
 =================================================
 W R F - G C   T I M E R S
    Domain           1 (Units: s)
 =================================================
  => Coupler Component                       2.897
   -- Physics & Parameterization             0.678
   -- Diagnostics Out                        0.000
  => GEOS-Chem Column                      199.498
  ===> Total Chemistry                     202.395
  => WRF                                  1802.484
  ===> Total WRF-GC                       2004.879
 max optd  6.0603899E+33
 max taucldi  6.3401926E-06
 max taucldw  8.3230909E-05
 Switching is not necessary as we are already
 in the right domain!
 GIGC_Chunk_Run: Running for in-PET grid #           1
 GIGC_Chunk_Run: Received new grid IM, JM, LM =          15           9
          49
 =================================================
 W R F - G C   T I M E R S
    Domain           1 (Units: s)
 =================================================
  => Coupler Component                       2.930
   -- Physics & Parameterization             0.688
   -- Diagnostics Out                        0.000
  => GEOS-Chem Column                      200.501
  ===> Total Chemistry                     203.432
  => WRF                                  1820.622
  ===> Total WRF-GC                       2024.054
 max optd  6.0603899E+33
 max taucldi  6.3435496E-06
 max taucldw  8.3311934E-05
 Switching is not necessary as we are already
 in the right domain!
 GIGC_Chunk_Run: Running for in-PET grid #           1
 GIGC_Chunk_Run: Received new grid IM, JM, LM =          15           9
          49
 =================================================
 W R F - G C   T I M E R S
    Domain           1 (Units: s)
 =================================================
  => Coupler Component                       2.965
   -- Physics & Parameterization             0.697
   -- Diagnostics Out                        0.000
  => GEOS-Chem Column                      201.510
  ===> Total Chemistry                     204.476
  => WRF                                  1838.961
  ===> Total WRF-GC                       2043.437
 max optd  6.0603899E+33
 max taucldi  6.4113128E-06
 max taucldw  8.3290426E-05
 Switching is not necessary as we are already
 in the right domain!
 GIGC_Chunk_Run: Running for in-PET grid #           1
 GIGC_Chunk_Run: Received new grid IM, JM, LM =          15           9
          49
 =================================================
 W R F - G C   T I M E R S
    Domain           1 (Units: s)
 =================================================
  => Coupler Component                       3.001
[...]
  => GEOS-Chem Column                      247.307
  ===> Total Chemistry                     252.125
  => WRF                                  2658.552
  ===> Total WRF-GC                       2910.677
 HOURLY EMISSIONS UPDATE TIME    36000.0       0.0
mediation_integrate: med_read_wrf_chem_emissions: Read emissions for time 2018-01-01_10:00:00
 max optd  6.0603899E+33
 max taucldi  1.1340014E-05
 max taucldw  1.1271056E-04
 Switching is not necessary as we are already
 in the right domain!
 GIGC_Chunk_Run: Running for in-PET grid #           1
 GIGC_Chunk_Run: Received new grid IM, JM, LM =          15           9
          49
 =================================================
 W R F - G C   T I M E R S
    Domain           1 (Units: s)
 =================================================
  => Coupler Component                       4.853
   -- Physics & Parameterization             1.130
   -- Diagnostics Out                        0.000
  => GEOS-Chem Column                      248.321
  ===> Total Chemistry                     253.174
  => WRF                                  2676.822
  ===> Total WRF-GC                       2929.996
 max optd  6.0603899E+33
 max taucldi  1.1498500E-05
 max taucldw  1.1359170E-04
 Switching is not necessary as we are already
 in the right domain!
 GIGC_Chunk_Run: Running for in-PET grid #           1
 GIGC_Chunk_Run: Received new grid IM, JM, LM =          15           9
          49
 =================================================
 W R F - G C   T I M E R S
    Domain           1 (Units: s)
 =================================================
  => Coupler Component                       4.890
   -- Physics & Parameterization             1.140
   -- Diagnostics Out                        0.000
  => GEOS-Chem Column                      249.328
  ===> Total Chemistry                     254.218
  => WRF                                  2695.011
  ===> Total WRF-GC                       2949.228
 max optd  6.0603899E+33
 max taucldi  1.1668886E-05
 max taucldw  1.1457709E-04
 Switching is not necessary as we are already
 in the right domain!
 GIGC_Chunk_Run: Running for in-PET grid #           1
 GIGC_Chunk_Run: Received new grid IM, JM, LM =          15           9
          49
 =================================================
 W R F - G C   T I M E R S
    Domain           1 (Units: s)
 =================================================
  => Coupler Component                       4.929
   -- Physics & Parameterization             1.149
   -- Diagnostics Out                        0.000
  => GEOS-Chem Column                      250.334
  ===> Total Chemistry                     255.263
  => WRF                                  2713.208
  ===> Total WRF-GC                       2968.471
 max optd  6.0603899E+33
 max taucldi  1.1846077E-05
 max taucldw  1.1569513E-04
 Switching is not necessary as we are already
 in the right domain!
 GIGC_Chunk_Run: Running for in-PET grid #           1
 GIGC_Chunk_Run: Received new grid IM, JM, LM =          15           9
          49
 =================================================
 W R F - G C   T I M E R S
    Domain           1 (Units: s)
 =================================================
  => Coupler Component                       4.977
   -- Physics & Parameterization             1.158
   -- Diagnostics Out                        0.000
  => GEOS-Chem Column                      251.364
  ===> Total Chemistry                     256.341
  => WRF                                  2731.505
  ===> Total WRF-GC                       2987.846
 max optd  6.0603899E+33
 max taucldi  1.2026190E-05
 max taucldw  1.1696336E-04
 Switching is not necessary as we are already
 in the right domain!
 GIGC_Chunk_Run: Running for in-PET grid #           1
 GIGC_Chunk_Run: Received new grid IM, JM, LM =          15           9
          49
 =================================================
 W R F - G C   T I M E R S
    Domain           1 (Units: s)
 =================================================
  => Coupler Component                       5.013
   -- Physics & Parameterization             1.168
   -- Diagnostics Out                        0.000
  => GEOS-Chem Column                      252.372
  ===> Total Chemistry                     257.384
  => WRF                                  2749.686
  ===> Total WRF-GC                       3007.071
 max optd  6.0603899E+33
 max taucldi  1.2214728E-05
 max taucldw  1.1825720E-04
 Switching is not necessary as we are already
 in the right domain!
 GIGC_Chunk_Run: Running for in-PET grid #           1
 GIGC_Chunk_Run: Received new grid IM, JM, LM =          15           9
          49
 =================================================
 W R F - G C   T I M E R S
    Domain           1 (Units: s)
 =================================================
  => Coupler Component                       5.051
   -- Physics & Parameterization             1.178
   -- Diagnostics Out                        0.000
  => GEOS-Chem Column                      253.381
  ===> Total Chemistry                     258.431
  => WRF                                  2767.832
  ===> Total WRF-GC                       3026.263
 max optd  6.0603899E+33
 max taucldi  1.2408428E-05
 max taucldw  1.1950368E-04
 Switching is not necessary as we are already
 in the right domain!
 GIGC_Chunk_Run: Running for in-PET grid #           1
 GIGC_Chunk_Run: Received new grid IM, JM, LM =          15           9
          49
 =================================================
 W R F - G C   T I M E R S
    Domain           1 (Units: s)
 =================================================
  => Coupler Component                       5.098
   -- Physics & Parameterization             1.187
   -- Diagnostics Out                        0.000
  => GEOS-Chem Column                      254.411
  ===> Total Chemistry                     259.509
  => WRF                                  2786.082
  ===> Total WRF-GC                       3045.590
 max optd  6.0603899E+33
 max taucldi  1.2606129E-05
 max taucldw  1.2075455E-04
 Switching is not necessary as we are already
 in the right domain!
 GIGC_Chunk_Run: Running for in-PET grid #           1
 GIGC_Chunk_Run: Received new grid IM, JM, LM =          15           9
          49
 =================================================
 W R F - G C   T I M E R S
    Domain           1 (Units: s)
 =================================================
  => Coupler Component                       5.130
   -- Physics & Parameterization             1.196
   -- Diagnostics Out                        0.000
  => GEOS-Chem Column                      255.421
  ===> Total Chemistry                     260.551
  => WRF                                  2804.247
  ===> Total WRF-GC                       3064.798
 max optd  6.0603899E+33
 max taucldi  1.2810676E-05
 max taucldw  1.2189268E-04
 Switching is not necessary as we are already
 in the right domain!
 GIGC_Chunk_Run: Running for in-PET grid #           1
 GIGC_Chunk_Run: Received new grid IM, JM, LM =          15           9
          49
 =================================================
 W R F - G C   T I M E R S
    Domain           1 (Units: s)
 =================================================
  => Coupler Component                       5.175
   -- Physics & Parameterization             1.206
   -- Diagnostics Out                        0.000
  => GEOS-Chem Column                      256.441
  ===> Total Chemistry                     261.616
  => WRF                                  2822.446
  ===> Total WRF-GC                       3084.062
 max optd  6.0603899E+33
 max taucldi  1.3020031E-05
 max taucldw  1.2301120E-04
 Switching is not necessary as we are already
 in the right domain!
 GIGC_Chunk_Run: Running for in-PET grid #           1
 GIGC_Chunk_Run: Received new grid IM, JM, LM =          15           9
          49
 =================================================
 W R F - G C   T I M E R S
    Domain           1 (Units: s)
 =================================================
  => Coupler Component                       5.219
   -- Physics & Parameterization             1.215
   -- Diagnostics Out                        0.000
  => GEOS-Chem Column                      257.463
  ===> Total Chemistry                     262.682
  => WRF                                  2840.687
  ===> Total WRF-GC                       3103.368
 max optd  6.0603899E+33
 max taucldi  1.3241578E-05
 max taucldw  1.2398224E-04
 Switching is not necessary as we are already
 in the right domain!
 GIGC_Chunk_Run: Running for in-PET grid #           1
 GIGC_Chunk_Run: Received new grid IM, JM, LM =          15           9
          49
 =================================================
 W R F - G C   T I M E R S
    Domain           1 (Units: s)
 =================================================
  => Coupler Component                       5.263
   -- Physics & Parameterization             1.225
   -- Diagnostics Out                        0.000
  => GEOS-Chem Column                      258.480
  ===> Total Chemistry                     263.742
  => WRF                                  2858.862
  ===> Total WRF-GC                       3122.605
 max optd  6.0603899E+33
 max taucldi  1.3485642E-05
 max taucldw  1.2473929E-04
 Switching is not necessary as we are already
 in the right domain!
 GIGC_Chunk_Run: Running for in-PET grid #           1
 GIGC_Chunk_Run: Received new grid IM, JM, LM =          15           9
          49
 =================================================
 W R F - G C   T I M E R S
    Domain           1 (Units: s)
 =================================================
  => Coupler Component                       5.305
   -- Physics & Parameterization             1.234
   -- Diagnostics Out                        0.000
  => GEOS-Chem Column                      259.500
  ===> Total Chemistry                     264.806
  => WRF                                  2877.100
  ===> Total WRF-GC                       3141.906
 HOURLY EMISSIONS UPDATE TIME    39600.0       0.0
mediation_integrate: med_read_wrf_chem_emissions: Read emissions for time 2018-01-01_11:00:00
 max optd  6.0603899E+33
 max taucldi  1.3744657E-05
 max taucldw  1.2545225E-04
 Switching is not necessary as we are already
 in the right domain!
 GIGC_Chunk_Run: Running for in-PET grid #           1
 GIGC_Chunk_Run: Received new grid IM, JM, LM =          15           9
          49
 =================================================
 W R F - G C   T I M E R S
    Domain           1 (Units: s)
 =================================================
  => Coupler Component                       5.351
   -- Physics & Parameterization             1.243
   -- Diagnostics Out                        0.000
  => GEOS-Chem Column                      260.523
  ===> Total Chemistry                     265.874
  => WRF                                  2895.312
  ===> Total WRF-GC                       3161.186
 max optd  6.0603899E+33
 max taucldi  1.4050784E-05
 max taucldw  1.2615706E-04
 Switching is not necessary as we are already
 in the right domain!
 GIGC_Chunk_Run: Running for in-PET grid #           1
 GIGC_Chunk_Run: Received new grid IM, JM, LM =          15           9
          49
 =================================================
 W R F - G C   T I M E R S
    Domain           1 (Units: s)
 =================================================
  => Coupler Component                       5.395
   -- Physics & Parameterization             1.253
   -- Diagnostics Out                        0.000
  => GEOS-Chem Column                      261.540
  ===> Total Chemistry                     266.935
  => WRF                                  2913.454
  ===> Total WRF-GC                       3180.389
 max optd  6.0603899E+33
 max taucldi  1.4376080E-05
 max taucldw  1.2690316E-04
 Switching is not necessary as we are already
 in the right domain!
 GIGC_Chunk_Run: Running for in-PET grid #           1
 GIGC_Chunk_Run: Received new grid IM, JM, LM =          15           9
          49
 =================================================
 W R F - G C   T I M E R S
    Domain           1 (Units: s)
 =================================================
  => Coupler Component                       5.436
   -- Physics & Parameterization             1.263
   -- Diagnostics Out                        0.000
  => GEOS-Chem Column                      262.555
  ===> Total Chemistry                     267.991
  => WRF                                  2931.737
  ===> Total WRF-GC                       3199.728
 max optd  6.0603899E+33
 max taucldi  1.4714667E-05
 max taucldw  1.2777263E-04
 Switching is not necessary as we are already
 in the right domain!
 GIGC_Chunk_Run: Running for in-PET grid #           1
 GIGC_Chunk_Run: Received new grid IM, JM, LM =          15           9
          49
 =================================================
 W R F - G C   T I M E R S
    Domain           1 (Units: s)
 =================================================
  => Coupler Component                       5.481
   -- Physics & Parameterization             1.272
   -- Diagnostics Out                        0.000
  => GEOS-Chem Column                      263.579
  ===> Total Chemistry                     269.060
  => WRF                                  2950.039
  ===> Total WRF-GC                       3219.099
 max optd  6.0603899E+33
 max taucldi  1.5021545E-05
 max taucldw  1.2877675E-04
 Switching is not necessary as we are already
 in the right domain!
 GIGC_Chunk_Run: Running for in-PET grid #           1
 GIGC_Chunk_Run: Received new grid IM, JM, LM =          15           9
          49
 =================================================
 W R F - G C   T I M E R S
    Domain           1 (Units: s)
 =================================================
  => Coupler Component                       5.523
   -- Physics & Parameterization             1.282
   -- Diagnostics Out                        0.000
  => GEOS-Chem Column                      264.593
  ===> Total Chemistry                     270.116
  => WRF                                  2968.490
  ===> Total WRF-GC                       3238.607
 max optd  6.0603899E+33
 max taucldi  1.5295596E-05
 max taucldw  1.2985367E-04
 Switching is not necessary as we are already
 in the right domain!
 GIGC_Chunk_Run: Running for in-PET grid #           1
 GIGC_Chunk_Run: Received new grid IM, JM, LM =          15           9
          49
 =================================================
 W R F - G C   T I M E R S
    Domain           1 (Units: s)
 =================================================
  => Coupler Component                       5.561
   -- Physics & Parameterization             1.291
   -- Diagnostics Out                        0.000
  => GEOS-Chem Column                      265.605
  ===> Total Chemistry                     271.166
  => WRF                                  2986.915
  ===> Total WRF-GC                       3258.081
 max optd  6.0603899E+33
 max taucldi  1.5538992E-05
 max taucldw  1.3093461E-04
 Switching is not necessary as we are already
 in the right domain!
 GIGC_Chunk_Run: Running for in-PET grid #           1
 GIGC_Chunk_Run: Received new grid IM, JM, LM =          15           9
          49
 =================================================
 W R F - G C   T I M E R S
    Domain           1 (Units: s)
 =================================================
  => Coupler Component                       5.605
   -- Physics & Parameterization             1.301
   -- Diagnostics Out                        0.000
  => GEOS-Chem Column                      266.632
  ===> Total Chemistry                     272.236
  => WRF                                  3005.508
  ===> Total WRF-GC                       3277.744
 max optd  6.0603899E+33
 max taucldi  1.5846197E-05
 max taucldw  1.3198267E-04
 Switching is not necessary as we are already
 in the right domain!
 GIGC_Chunk_Run: Running for in-PET grid #           1
 GIGC_Chunk_Run: Received new grid IM, JM, LM =          15           9
          49
 =================================================
 W R F - G C   T I M E R S
    Domain           1 (Units: s)
 =================================================
  => Coupler Component                       5.649
   -- Physics & Parameterization             1.310
   -- Diagnostics Out                        0.000
  => GEOS-Chem Column                      267.660
  ===> Total Chemistry                     273.310
  => WRF                                  3024.110
  ===> Total WRF-GC                       3297.420
 max optd  6.0603899E+33
 max taucldi  1.6175940E-05
 max taucldw  1.3312700E-04
 Switching is not necessary as we are already
 in the right domain!
 GIGC_Chunk_Run: Running for in-PET grid #           1
 GIGC_Chunk_Run: Received new grid IM, JM, LM =          15           9
          49
 =================================================
 W R F - G C   T I M E R S
    Domain           1 (Units: s)
 =================================================
  => Coupler Component                       5.687
   -- Physics & Parameterization             1.320
   -- Diagnostics Out                        0.000
  => GEOS-Chem Column                      268.669
  ===> Total Chemistry                     274.356
  => WRF                                  3042.784
  ===> Total WRF-GC                       3317.140
 max optd  6.0603899E+33
 max taucldi  1.6509990E-05
 max taucldw  1.3462237E-04
 Switching is not necessary as we are already
 in the right domain!
 GIGC_Chunk_Run: Running for in-PET grid #           1
 GIGC_Chunk_Run: Received new grid IM, JM, LM =          15           9
          49
 =================================================
 W R F - G C   T I M E R S
    Domain           1 (Units: s)
 =================================================
  => Coupler Component                       5.731
   -- Physics & Parameterization             1.329
   -- Diagnostics Out                        0.000
  => GEOS-Chem Column                      269.703
  ===> Total Chemistry                     275.434
  => WRF                                  3061.750
  ===> Total WRF-GC                       3337.184
 max optd  6.0603899E+33
 max taucldi  1.6838740E-05
 max taucldw  1.3618133E-04
 Switching is not necessary as we are already
 in the right domain!
 GIGC_Chunk_Run: Running for in-PET grid #           1
 GIGC_Chunk_Run: Received new grid IM, JM, LM =          15           9
          49
 =================================================
 W R F - G C   T I M E R S
    Domain           1 (Units: s)
 =================================================
  => Coupler Component                       5.766
   -- Physics & Parameterization             1.339
   -- Diagnostics Out                        0.000
  => GEOS-Chem Column                      270.703
  ===> Total Chemistry                     276.470
  => WRF                                  3080.561
  ===> Total WRF-GC                       3357.031
 max optd  6.0603899E+33
 max taucldi  1.7145438E-05
 max taucldw  1.3725692E-04
 Switching is not necessary as we are already
 in the right domain!
 GIGC_Chunk_Run: Running for in-PET grid #           1
 GIGC_Chunk_Run: Received new grid IM, JM, LM =          15           9
          49
 =================================================
 W R F - G C   T I M E R S
    Domain           1 (Units: s)
 =================================================
  => Coupler Component                       5.810
   -- Physics & Parameterization             1.348
   -- Diagnostics Out                        0.000
  => GEOS-Chem Column                      271.725
  ===> Total Chemistry                     277.534
  => WRF                                  3099.384
  ===> Total WRF-GC                       3376.918
d01 2018-01-01_12:00:00 wrf: SUCCESS COMPLETE WRF
