taskid: 1101 hostname: ip-172-31-3-194
Quilting with   1 groups of   0 I/O tasks.
 Ntasks in X           64 , ntasks in Y           72
--- WARNING: traj_opt is zero, but num_traj is not zero; setting num_traj to zero.
--- NOTE: sst_update is 0, setting io_form_auxinput4 = 0 and auxinput4_interval = 0 for all domains
--- NOTE: grid_fdda is 0 for domain      1, setting gfdda interval and ending time to 0 for that domain.
--- NOTE: both grid_sfdda and pxlsm_soil_nudge are 0 for domain      1, setting sgfdda interval and ending time to 0 for that domain.
--- NOTE: obs_nudge_opt is 0 for domain      1, setting obs nudging interval and ending time to 0 for that domain.
--- NOTE: bl_pbl_physics /= 4, implies mfshconv must be 0, resetting
Need MYNN PBL for icloud_bl = 1, resetting to 0
*************************************
No physics suite selected.
Physics options will be used directly from the namelist.
*************************************
--- NOTE: RRTMG radiation is in use, setting:  levsiz=59, alevsiz=12, no_src_types=6
--- NOTE: num_soil_layers has been set to      4
WRF V3.9.1.1 MODEL
 *************************************
 Parent domain
 ids,ide,jds,jde            1         950           1         650
 ims,ime,jms,jme          189         217         148         170
 ips,ipe,jps,jpe          196         210         155         163
 *************************************
DYNAMICS OPTION: Eulerian Mass Coordinate
   alloc_space_field: domain            1 ,              203623800  bytes allocated
  med_initialdata_input: calling input_input
Max map factor in domain 1 =  1.40. Scale the dt in the model accordingly.
INPUT LandUse = "USGS"
 LANDUSE TYPE = "USGS" FOUND          33  CATEGORIES           2  SEASONS WATER CATEGORY =           16  SNOW CATEGORY =           24
INITIALIZE THREE Noah LSM RELATED TABLES
*****************************************************************
  __          _______  ______       _____  _____ _    _ _____
  \ \        / /  __ \|  ____|     / ____|/ ____| |  | |  __ \
   \ \  /\  / /| |__) | |__ ______| |  __| |    | |__| | |__) |
    \ \/  \/ / |  _  /|  __|______| | |_ | |    |  __  |  ___/
     \  /\  /  | | \ \| |         | |__| | |____| |  | | |
      \/  \/   |_|  \_\_|          \_____|\_____|_|  |_|_|
*****************************************************************
         WRF-GC MODEL, VERSION 1811.11 - WRF BINDINGS
 For errors, suggestions & feedback email linhaipeng@pku.edu.cn
*****************************************************************
    This is domain            1
 ### GIGC_Stateful_Mod: Root CPU, after READ_INPUT_FILE
  Linoz Data:  O3 climatology :                  z*=10, 12, ..., 58                             2.700E-08 1.083E-05
  Linoz Data:  Temperature climatology :         z*=10, 12, ..., 58                             1.859E+02 2.904E+02
  Linoz Data:  Column O3 above box climalology : z*=10, 12, ..., 58                             7.538E-02 3.770E+02
  Linoz Data:  P-L O3 climatology (mr/s):        z*=10, 12, ..., 58                            -1.590E-10 2.835E-11
  Linoz Data:  d(P-L)/dO3 (1/s) :                z*=10, 12, ..., 58                            -8.386E-04 7.556E-09
  Linoz Data:  d(P-L)/dT (mr/K) :                z*=10, 12, ..., 58                            -5.742E-12 4.615E-14
  Linoz Data:  d(P-L)/d(column O3) (mr/DU) :     z*=10, 12, ..., 58                            -1.921E-12 5.038E-10
 ### GIGC_Stateful_Mod: Root CPU, after LINOZ_READ
 %%%%%%%%% GIGC IN-PET GRID SWITCHING HACKS %%%%%%%%%
     (Not very) Proudly brought to you by hplin      
 Some debug information:
 ID:           1
 IM, JM, LM:          15           9          49  will be set as PAR
 Allocs: CMN T GC F
 RC at entry-point:           0
 %%%%%%%%%%%%%%%%%%%%%%%%%%%%%%%%%%%%%%%%%%%%%%%%%%%%
 No need to switch HcoState for ID           1
 Exit RC:            0
 %%%%%%%%%    FINISHED GIGC_Switch_Dims    %%%%%%%%%
 GIGC_Chunk_Init: Received new grid IM, JM, LM =          15           9
          49
     ### GIGC_INIT_SIMULATION: after Input_Opt% setups
     ### GIGC_INIT_SIMULATION: after GC_Init_All
     ### GIGC_INIT_SIMULATION: after GC_Init_Extra
     ### GIGC_INIT_SIMULATION: after INIT_FJX
 # GIGC_CHUNK_MOD: after SV save, ID =           1
 WRFGC chemics_init: Following information regarding Input_Opt% (for all doms)
 After domain           1
 HPC:  T
 LPRT:  F
 DoConv:  T
 DoDryDep:  T
 DoEmis:  T
 DoChem:  T
 DoTurb:  T
 DoWetDep:  T

 tropopause_init: DONE intialized domain            1

 mediation_integrate: med_read_wrf_chem_emissions: Open file wrfchemi_00z_d01
 HOURLY EMISSIONS UPDATE TIME        0.0       0.0
mediation_integrate: med_read_wrf_chem_emissions: Read emissions for time 2018-01-01_00:00:00
open_aux_u : error opening wrffirechemi_d01_2018-01-01_00:00:00 for reading. 100
open_aux_u : error opening wrfchemi_gocart_bg_d01 for reading. 100
d01 2018-01-01_00:00:00 Input data processed for aux input   8 for domain   1
open_aux_u : error opening wrfchemv_d01 for reading. 100
 Tile Strategy is not specified. Assuming 1D-Y
WRF TILE   1 IS    196 IE    210 JS    155 JE    163
WRF NUMBER OF TILES =   1
 max optd  1.4722496E+32
 max taucldi  0.0000000E+00
 max taucldw  0.0000000E+00
 =================================================
 W R F - G C   T I M E R S
    Domain           1 (Units: s)
 =================================================
  => Coupler Component                       0.030
   -- Physics & Parameterization             0.001
   -- Diagnostics Out                        0.000
  => GEOS-Chem Column                        0.000
  ===> Total Chemistry                       0.030
  => WRF                                     0.000
  ===> Total WRF-GC                          0.030
 max optd  1.4722496E+32
 max taucldi  1.0000007E-14
 max taucldw  1.0000007E-14
 %%%%%%%%% GIGC IN-PET GRID SWITCHING HACKS %%%%%%%%%
     (Not very) Proudly brought to you by hplin      
 Some debug information:
 ID:           1
 IM, JM, LM:          15           9          49  will be set as PAR
 Allocs: CMN T GC T
 RC at entry-point:           0
 %%%%%%%%%%%%%%%%%%%%%%%%%%%%%%%%%%%%%%%%%%%%%%%%%%%%
 No need to switch HcoState for ID           1
 Debug HcoState nSpc, NX, NY, NZ         163          15           9          49
 Exit RC:            0
 %%%%%%%%%    FINISHED GIGC_Switch_Dims    %%%%%%%%%
 GIGC_Chunk_Run: Running for in-PET grid #           1
 GIGC_Chunk_Run: Received new grid IM, JM, LM =          15           9
          49
HEMCO: Opening /fsx/HEMCO/BIOFUEL/v2014-07/biofuel.geos.4x5.nc
HEMCO: Opening /fsx/HEMCO/BROMINE/v2015-02/Bromocarb_Liang2010.nc
HEMCO: Opening /fsx/HEMCO/ACET/v2014-07/ACET_seawater.generic.1x1.nc
HEMCO: Opening /fsx/HEMCO/SOILNOX/v2014-07/DepReservoirDefault.nc
HEMCO: Opening /fsx/HEMCO/SOILNOX/v2014-07/soilNOx.landtype.generic.025x025.1L.nc
HEMCO: Opening /fsx/HEMCO/SOILNOX/v2014-07/soilNOx.climate.generic.05x05.nc
HEMCO: Opening /fsx/HEMCO/DUST_DEAD/v2014-07/dst_tibds.geos.4x5.nc
HEMCO: Opening /fsx/HEMCO/DUST_DEAD/v2014-07/GOCART_src_fn.geos.4x5.nc
HEMCO: Opening /fsx/HEMCO/MEGAN/v2018-05/MEGAN2.1_EF.geos.025x03125.nc
HEMCO: Opening /fsx/HEMCO/MEGAN/v2017-07/CLM4_PFT.geos.025x03125.nc
HEMCO: Opening /fsx/HEMCO/TIMEZONES/v2015-02/timezones_voronoi_1x1.nc
HEMCO: Opening /fsx/HEMCO/STRAT/v2015-01/Bry/GEOSCCM_Bry.200701.day.nc
HEMCO: Opening /fsx/HEMCO/STRAT/v2015-01/Bry/GEOSCCM_Bry.200701.night.nc
HEMCO: Opening /fsx/HEMCO/OMOC/v2018-01/OMOC.DJF.01x01.nc
HEMCO: Opening /fsx/HEMCO/OMOC/v2018-01/OMOC.MAM.01x01.nc
HEMCO: Opening /fsx/HEMCO/OMOC/v2018-01/OMOC.JJA.01x01.nc
HEMCO: Opening /fsx/HEMCO/OMOC/v2018-01/OMOC.SON.01x01.nc
HEMCO: Opening /fsx/HEMCO/AnnualScalar/v2014-07/AnnualScalar.geos.1x1.nc
HEMCO: Opening /fsx/HEMCO/EDGARv42/v2015-02/NO/EDGAR_hourly_NOxScal.nc
HEMCO: Opening /fsx/HEMCO/MASKS/v2018-09/EMEP_mask.geos.1x1.20151222.nc
HEMCO: Opening /fsx/HEMCO/MASKS/v2018-09/Canada_mask.geos.1x1.nc
HEMCO: Opening /fsx/HEMCO/MASKS/v2018-09/SE_Asia_mask.generic.1x1.nc
HEMCO: Opening /fsx/HEMCO/MASKS/v2018-09/MIX_Asia_mask.generic.025x025.nc
HEMCO: Opening /fsx/HEMCO/MASKS/v2018-09/CONUS_Mask.01x01.nc
HEMCO: Opening /fsx/HEMCO/MASKS/v2018-09/AF_LANDMASK.geos.05x0666.global.nc
HEMCO: Opening /fsx/HEMCO/MASKS/v2018-09/China_mask.generic.1x1.nc
HEMCO: Opening /fsx/HEMCO/MASKS/v2018-09/India_mask.generic.1x1.nc
HEMCO: Opening /fsx/HEMCO/AnnualScalar/v2014-07/AnnualScalar.geos.1x1.nc
HEMCO: Opening /fsx/HEMCO/NH3/v2014-07/NH3_geos.4x5.nc
HEMCO: Opening /fsx/HEMCO/NH3/v2018-04/NH3_Arctic_seabirds.nc
HEMCO: Opening /fsx/HEMCO/CEDS/v2018-08/2014/NO-em-anthro_CMIP_CEDS_2014.nc
HEMCO: Opening /fsx/HEMCO/CEDS/v2018-08/2014/CO-em-anthro_CMIP_CEDS_2014.nc
HEMCO: Opening /fsx/HEMCO/CEDS/v2018-08/2014/SO2-em-anthro_CMIP_CEDS_2014.nc
HEMCO: Opening /fsx/HEMCO/CEDS/v2018-08/2014/NH3-em-anthro_CMIP_CEDS_2014.nc
HEMCO: Opening /fsx/HEMCO/CEDS/v2018-08/2014/BC-em-anthro_CMIP_CEDS_2014.nc
HEMCO: Opening /fsx/HEMCO/CEDS/v2018-08/2014/OC-em-anthro_CMIP_CEDS_2014.nc
HEMCO: Opening /fsx/HEMCO/CEDS/v2018-08/2014/EOH-em-anthro_CMIP_CEDS_2014.nc
HEMCO: Opening /fsx/HEMCO/CEDS/v2018-08/2014/C2H6-em-anthro_CMIP_CEDS_2014.nc
HEMCO: Opening /fsx/HEMCO/CEDS/v2018-08/2014/C3H8-em-anthro_CMIP_CEDS_2014.nc
HEMCO: Opening /fsx/HEMCO/CEDS/v2018-08/2014/ALK4_butanes-em-anthro_CMIP_CEDS_2014.nc
HEMCO: Opening /fsx/HEMCO/CEDS/v2018-08/2014/ALK4_pentanes-em-anthro_CMIP_CEDS_2014.nc
HEMCO: Opening /fsx/HEMCO/CEDS/v2018-08/2014/ALK4_hexanes-em-anthro_CMIP_CEDS_2014.nc
HEMCO: Opening /fsx/HEMCO/CEDS/v2018-08/2014/PRPE-em-anthro_CMIP_CEDS_2014.nc
HEMCO: Opening /fsx/HEMCO/CEDS/v2018-08/2014/BENZ-em-anthro_CMIP_CEDS_2014.nc
HEMCO: Opening /fsx/HEMCO/CEDS/v2018-08/2014/TOLU-em-anthro_CMIP_CEDS_2014.nc
HEMCO: Opening /fsx/HEMCO/CEDS/v2018-08/2014/XYLE-em-anthro_CMIP_CEDS_2014.nc
HEMCO: Opening /fsx/HEMCO/CEDS/v2018-08/2014/CH2O-em-anthro_CMIP_CEDS_2014.nc
HEMCO: Opening /fsx/HEMCO/CEDS/v2018-08/2014/ALD2-em-anthro_CMIP_CEDS_2014.nc
HEMCO: Opening /fsx/HEMCO/CEDS/v2018-08/2014/MEK-em-anthro_CMIP_CEDS_2014.nc
HEMCO: Opening /fsx/HEMCO/CEDS/v2018-08/2014/HCOOH-em-anthro_CMIP_CEDS_2014.nc
HEMCO: Opening /fsx/HEMCO/C2H6_2010/v2017-05/C2H6_global_anth_biof.201001.nc
HEMCO: Opening /fsx/HEMCO/NEI2011/v2017-02-MM/01/NEI11_0.1x0.1_201101_monmean.nc
HEMCO: Opening /fsx/HEMCO/NEI2011/v2017-02-MM/01/NEI11_0.1x0.1_201101_monmean_egu.nc
HEMCO: Opening /fsx/HEMCO/NEI2011/v2017-02-MM/01/NEI11_0.1x0.1_201101_monmean_egupk.nc
HEMCO: Opening /fsx/HEMCO/NEI2011/v2017-02-MM/01/NEI11_0.1x0.1_201101_monmean_oilgas.nc
HEMCO: Opening /fsx/HEMCO/NEI2011/v2017-02-MM/01/NEI11_0.1x0.1_201101_monmean_othpt.nc
HEMCO: Opening /fsx/HEMCO/NEI2011/v2017-02-MM/01/NEI11_0.1x0.1_201101_monmean_ptnonipm.nc
HEMCO: Opening /fsx/HEMCO/IODINE/v2017-09/CH3I_monthly_emissions_Ordonez_2012_COARDS.nc
HEMCO: Opening /fsx/HEMCO/IODINE/v2017-09/CH2I2_monthly_emissions_Ordonez_2012_COARDS.nc
HEMCO: Opening /fsx/HEMCO/IODINE/v2017-09/CH2ICl_monthly_emissions_Ordonez_2012_COARDS.nc
HEMCO: Opening /fsx/HEMCO/IODINE/v2017-09/CH2IBr_monthly_emissions_Ordonez_2012_COARDS.nc
HEMCO: Opening /fsx/HEMCO/CEDS/v2018-08/2014/CO-em-anthro_CMIP_CEDS_2014.nc
HEMCO: Opening /fsx/HEMCO/CEDS/v2018-08/2014/SO2-em-anthro_CMIP_CEDS_2014.nc
HEMCO: Opening /fsx/HEMCO/CEDS/v2018-08/2014/NH3-em-anthro_CMIP_CEDS_2014.nc
HEMCO: Opening /fsx/HEMCO/CEDS/v2018-08/2014/BC-em-anthro_CMIP_CEDS_2014.nc
HEMCO: Opening /fsx/HEMCO/CEDS/v2018-08/2014/OC-em-anthro_CMIP_CEDS_2014.nc
HEMCO: Opening /fsx/HEMCO/CEDS/v2018-08/2014/EOH-em-anthro_CMIP_CEDS_2014.nc
HEMCO: Opening /fsx/HEMCO/CEDS/v2018-08/2014/C2H6-em-anthro_CMIP_CEDS_2014.nc
HEMCO: Opening /fsx/HEMCO/CEDS/v2018-08/2014/C3H8-em-anthro_CMIP_CEDS_2014.nc
HEMCO: Opening /fsx/HEMCO/CEDS/v2018-08/2014/ALK4_butanes-em-anthro_CMIP_CEDS_2014.nc
HEMCO: Opening /fsx/HEMCO/CEDS/v2018-08/2014/ALK4_pentanes-em-anthro_CMIP_CEDS_2014.nc
HEMCO: Opening /fsx/HEMCO/CEDS/v2018-08/2014/ALK4_hexanes-em-anthro_CMIP_CEDS_2014.nc
HEMCO: Opening /fsx/HEMCO/CEDS/v2018-08/2014/PRPE-em-anthro_CMIP_CEDS_2014.nc
HEMCO: Opening /fsx/HEMCO/CEDS/v2018-08/2014/BENZ-em-anthro_CMIP_CEDS_2014.nc
HEMCO: Opening /fsx/HEMCO/CEDS/v2018-08/2014/TOLU-em-anthro_CMIP_CEDS_2014.nc
HEMCO: Opening /fsx/HEMCO/CEDS/v2018-08/2014/XYLE-em-anthro_CMIP_CEDS_2014.nc
HEMCO: Opening /fsx/HEMCO/CEDS/v2018-08/2014/CH2O-em-anthro_CMIP_CEDS_2014.nc
HEMCO: Opening /fsx/HEMCO/CEDS/v2018-08/2014/ALD2-em-anthro_CMIP_CEDS_2014.nc
HEMCO: Opening /fsx/HEMCO/CEDS/v2018-08/2014/MEK-em-anthro_CMIP_CEDS_2014.nc
HEMCO: Opening /fsx/HEMCO/CEDS/v2018-08/2014/HCOOH-em-anthro_CMIP_CEDS_2014.nc
HEMCO: Opening /fsx/HEMCO/CEDS/v2018-08/2014/NO-em-anthro_CMIP_CEDS_2014.nc
HEMCO: Opening /fsx/HEMCO/AEIC/v2015-01/AEIC.47L.gen.1x1.nc
HEMCO: Opening /fsx/HEMCO/ALD2/v2017-03/resp.geos.2x25.nc
HEMCO: Opening /fsx/HEMCO/DMS/v2015-07/DMS_lana.geos.1x1.nc
HEMCO: Opening /fsx/HEMCO/ALD2/v2017-03/ALD2_seawater.geos.2x25.nc
HEMCO: Opening /fsx/HEMCO/DUST_DEAD/v2014-07/dst_tvbds.geos.4x5.nc
HEMCO: Opening /fsx/HEMCO/DUST_DEAD/v2018-04/PM25FINE_ECLIPSE_2015.geos.2x25.nc
HEMCO: Opening /fsx/HEMCO/SOA/v2014-07/NVOC.geos.1x1.nc
HEMCO: Opening /fsx/HEMCO/GFED4/v2015-10/2016/GFED4_gen.025x025.201601.nc
HEMCO: Opening /fsx/HEMCO/UVALBEDO/v2015-03/uvalbedo.geos.2x25.nc
HEMCO: Opening /fsx/HEMCO/GMI/v2015-02/gmi.clim.ACET.geos5.2x25.nc
HEMCO: Opening /fsx/HEMCO/GMI/v2015-02/gmi.clim.ACTA.geos5.2x25.nc
HEMCO: Opening /fsx/HEMCO/GMI/v2015-02/gmi.clim.ALD2.geos5.2x25.nc
HEMCO: Opening /fsx/HEMCO/GMI/v2015-02/gmi.clim.ALK4.geos5.2x25.nc
HEMCO: Opening /fsx/HEMCO/GMI/v2015-02/gmi.clim.C2H6.geos5.2x25.nc
HEMCO: Opening /fsx/HEMCO/GMI/v2015-02/gmi.clim.C3H8.geos5.2x25.nc
HEMCO: Opening /fsx/HEMCO/GMI/v2015-02/gmi.clim.CCl4.geos5.2x25.nc
HEMCO: Opening /fsx/HEMCO/GMI/v2015-02/gmi.clim.CF2Cl2.geos5.2x25.nc
HEMCO: Opening /fsx/HEMCO/GMI/v2015-02/gmi.clim.CF2ClBr.geos5.2x25.nc
HEMCO: Opening /fsx/HEMCO/GMI/v2015-02/gmi.clim.CFC113.geos5.2x25.nc
HEMCO: Opening /fsx/HEMCO/GMI/v2015-02/gmi.clim.CFC114.geos5.2x25.nc
HEMCO: Opening /fsx/HEMCO/GMI/v2015-02/gmi.clim.CFC115.geos5.2x25.nc
HEMCO: Opening /fsx/HEMCO/GMI/v2015-02/gmi.clim.CFCl3.geos5.2x25.nc
HEMCO: Opening /fsx/HEMCO/GMI/v2015-02/gmi.clim.CH2O.geos5.2x25.nc
HEMCO: Opening /fsx/HEMCO/GMI/v2015-02/gmi.clim.CH3CCl3.geos5.2x25.nc
HEMCO: Opening /fsx/HEMCO/GMI/v2015-02/gmi.clim.CH3Cl.geos5.2x25.nc
HEMCO: Opening /fsx/HEMCO/GMI/v2015-02/gmi.clim.CH4.geos5.2x25.nc
HEMCO: Opening /fsx/HEMCO/GMI/v2015-02/gmi.clim.CO.geos5.2x25.nc
HEMCO: Opening /fsx/HEMCO/GMI/v2015-02/gmi.clim.Cl.geos5.2x25.nc
HEMCO: Opening /fsx/HEMCO/GMI/v2015-02/gmi.clim.Cl2.geos5.2x25.nc
HEMCO: Opening /fsx/HEMCO/GMI/v2015-02/gmi.clim.Cl2O2.geos5.2x25.nc
HEMCO: Opening /fsx/HEMCO/GMI/v2015-02/gmi.clim.ClO.geos5.2x25.nc
HEMCO: Opening /fsx/HEMCO/GMI/v2015-02/gmi.clim.EOH.geos5.2x25.nc
HEMCO: Opening /fsx/HEMCO/GMI/v2015-02/gmi.clim.GLYC.geos5.2x25.nc
HEMCO: Opening /fsx/HEMCO/GMI/v2015-02/gmi.clim.GLYX.geos5.2x25.nc
HEMCO: Opening /fsx/HEMCO/GMI/v2015-02/gmi.clim.H2402.geos5.2x25.nc
HEMCO: Opening /fsx/HEMCO/GMI/v2015-02/gmi.clim.H2O.geos5.2x25.nc
HEMCO: Opening /fsx/HEMCO/GMI/v2015-02/gmi.clim.H2O2.geos5.2x25.nc
HEMCO: Opening /fsx/HEMCO/GMI/v2015-02/gmi.clim.HAC.geos5.2x25.nc
HEMCO: Opening /fsx/HEMCO/GMI/v2015-02/gmi.clim.HCFC141b.geos5.2x25.nc
HEMCO: Opening /fsx/HEMCO/GMI/v2015-02/gmi.clim.HCFC142b.geos5.2x25.nc
HEMCO: Opening /fsx/HEMCO/GMI/v2015-02/gmi.clim.HCFC22.geos5.2x25.nc
HEMCO: Opening /fsx/HEMCO/GMI/v2015-02/gmi.clim.HCOOH.geos5.2x25.20170108.nc
HEMCO: Opening /fsx/HEMCO/GMI/v2015-02/gmi.clim.HCl.geos5.2x25.nc
HEMCO: Opening /fsx/HEMCO/GMI/v2015-02/gmi.clim.HNO2.geos5.2x25.nc
HEMCO: Opening /fsx/HEMCO/GMI/v2015-02/gmi.clim.HNO3.geos5.2x25.nc
HEMCO: Opening /fsx/HEMCO/GMI/v2015-02/gmi.clim.HNO4.geos5.2x25.nc
HEMCO: Opening /fsx/HEMCO/GMI/v2015-02/gmi.clim.HOCl.geos5.2x25.nc
HEMCO: Opening /fsx/HEMCO/GMI/v2015-02/gmi.clim.ISN1.geos5.2x25.nc
HEMCO: Opening /fsx/HEMCO/GMI/v2015-02/gmi.clim.ISOP.geos5.2x25.nc
HEMCO: Opening /fsx/HEMCO/GMI/v2015-02/gmi.clim.MACR.geos5.2x25.nc
HEMCO: Opening /fsx/HEMCO/GMI/v2015-02/gmi.clim.MAP.geos5.2x25.nc
HEMCO: Opening /fsx/HEMCO/GMI/v2015-02/gmi.clim.MEK.geos5.2x25.nc
HEMCO: Opening /fsx/HEMCO/GMI/v2015-02/gmi.clim.MGLY.geos5.2x25.nc
HEMCO: Opening /fsx/HEMCO/GMI/v2015-02/gmi.clim.MP.geos5.2x25.nc
HEMCO: Opening /fsx/HEMCO/GMI/v2015-02/gmi.clim.MVK.geos5.2x25.nc
HEMCO: Opening /fsx/HEMCO/GMI/v2015-02/gmi.clim.N2O.geos5.2x25.nc
HEMCO: Opening /fsx/HEMCO/GMI/v2015-02/gmi.clim.N2O5.geos5.2x25.nc
HEMCO: Opening /fsx/HEMCO/GMI/v2015-02/gmi.clim.NO.geos5.2x25.nc
HEMCO: Opening /fsx/HEMCO/GMI/v2015-02/gmi.clim.NO2.geos5.2x25.nc
HEMCO: Opening /fsx/HEMCO/GMI/v2015-02/gmi.clim.NO3.geos5.2x25.nc
HEMCO: Opening /fsx/HEMCO/GMI/v2015-02/gmi.clim.O3.geos5.2x25.nc
HEMCO: Opening /fsx/HEMCO/GMI/v2015-02/gmi.clim.OClO.geos5.2x25.nc
HEMCO: Opening /fsx/HEMCO/GMI/v2015-02/gmi.clim.PAN.geos5.2x25.nc
HEMCO: Opening /fsx/HEMCO/GMI/v2015-02/gmi.clim.NPMN.geos5.2x25.nc
HEMCO: Opening /fsx/HEMCO/GMI/v2015-02/gmi.clim.IPMN.geos5.2x25.nc
HEMCO: Opening /fsx/HEMCO/GMI/v2015-02/gmi.clim.PPN.geos5.2x25.nc
HEMCO: Opening /fsx/HEMCO/GMI/v2015-02/gmi.clim.PRPE.geos5.2x25.nc
HEMCO: Opening /fsx/HEMCO/GMI/v2015-02/gmi.clim.R4N2.geos5.2x25.nc
HEMCO: Opening /fsx/HEMCO/GMI/v2015-02/gmi.clim.RCHO.geos5.2x25.nc
HEMCO: Opening /fsx/HEMCO/GMI/v2015-02/gmi.clim.RIPA.geos5.2x25.nc
HEMCO: Opening /fsx/HEMCO/GMI/v2015-02/gmi.clim.RIPB.geos5.2x25.nc
HEMCO: Opening /fsx/HEMCO/GMI/v2015-02/gmi.clim.RIPD.geos5.2x25.nc
HEMCO: Opening /fsx/HEMCO/GMI/v2015-02/gmi.clim.OH.geos5.2x25.nc
HEMCO: Opening /fsx/HEMCO/NOAA_GMD/v2018-01/monthly.gridded.surface.methane.1979-2020.1x1.nc
HEMCO: Opening /fsx/HEMCO/GEIA/v2014-07/GEIA_monthscal.generic.1x1.nc
HEMCO: Opening /fsx/HEMCO/EMEP/v2015-03/EMEP.Seasonal.geos.1x1.nc
HEMCO: Opening /fsx/HEMCO/BROMINE/v2015-02/BromoCarb_Season.nc
HEMCO: Opening /fsx/HEMCO/EDGARv43/v2016-11/EDGAR_v43.Seasonal.1x1.nc
HEMCO: Opening /fsx/HEMCO/NEI2005/v2014-09/scaling/NEI99.dow.geos.1x1.nc
HEMCO: Opening /fsx/HEMCO/VOLCANO/v2015-02/2009/volc_so2_gen.1x1.47L.200901.nc
HEMCO: Opening /fsx/HEMCO/SOILNOX/v2014-07/soilNOx.fert_res.generic.05x05.nc
 vdinti: pbl height will be limited to bottom           25  model levels. top is
     431.250100000000       hpa
 =================================================
 W R F - G C   T I M E R S
    Domain           1 (Units: s)
 =================================================
  => Coupler Component                       0.053
   -- Physics & Parameterization             0.010
   -- Diagnostics Out                        0.000
  => GEOS-Chem Column                      132.312
  ===> Total Chemistry                     132.365
  => WRF                                    17.293
  ===> Total WRF-GC                        149.658
 max optd  8.2603406E+31
 max taucldi  2.0805705E-06
 max taucldw  4.2563595E-04
 Switching is not necessary as we are already
 in the right domain!
 GIGC_Chunk_Run: Running for in-PET grid #           1
 GIGC_Chunk_Run: Received new grid IM, JM, LM =          15           9
          49
 =================================================
 W R F - G C   T I M E R S
    Domain           1 (Units: s)
 =================================================
  => Coupler Component                       0.079
   -- Physics & Parameterization             0.019
   -- Diagnostics Out                        0.000
  => GEOS-Chem Column                      134.776
  ===> Total Chemistry                     134.855
  => WRF                                    58.584
  ===> Total WRF-GC                        193.439
 max optd  8.2603406E+31
 max taucldi  5.4808793E-06
 max taucldw  8.2967879E-04
 Switching is not necessary as we are already
 in the right domain!
 GIGC_Chunk_Run: Running for in-PET grid #           1
 GIGC_Chunk_Run: Received new grid IM, JM, LM =          15           9
          49
 =================================================
 W R F - G C   T I M E R S
    Domain           1 (Units: s)
 =================================================
  => Coupler Component                       0.109
   -- Physics & Parameterization             0.029
   -- Diagnostics Out                        0.000
  => GEOS-Chem Column                      136.215
  ===> Total Chemistry                     136.325
  => WRF                                    77.983
  ===> Total WRF-GC                        214.308
 max optd  8.2603406E+31
 max taucldi  1.0009975E-05
 max taucldw  1.2063906E-03
 Switching is not necessary as we are already
 in the right domain!
 GIGC_Chunk_Run: Running for in-PET grid #           1
 GIGC_Chunk_Run: Received new grid IM, JM, LM =          15           9
          49
 =================================================
 W R F - G C   T I M E R S
    Domain           1 (Units: s)
 =================================================
  => Coupler Component                       0.143
   -- Physics & Parameterization             0.038
   -- Diagnostics Out                        0.000
  => GEOS-Chem Column                      137.507
  ===> Total Chemistry                     137.650
  => WRF                                    96.630
  ===> Total WRF-GC                        234.280
 max optd  8.2603406E+31
 max taucldi  1.5423635E-05
 max taucldw  1.5526823E-03
 Switching is not necessary as we are already
 in the right domain!
 GIGC_Chunk_Run: Running for in-PET grid #           1
 GIGC_Chunk_Run: Received new grid IM, JM, LM =          15           9
          49
 =================================================
 W R F - G C   T I M E R S
    Domain           1 (Units: s)
 =================================================
  => Coupler Component                       0.182
   -- Physics & Parameterization             0.047
   -- Diagnostics Out                        0.000
  => GEOS-Chem Column                      138.762
  ===> Total Chemistry                     138.944
  => WRF                                   114.968
  ===> Total WRF-GC                        253.912
 max optd  8.2603406E+31
 max taucldi  2.1255670E-05
 max taucldw  1.8445129E-03
 Switching is not necessary as we are already
 in the right domain!
 GIGC_Chunk_Run: Running for in-PET grid #           1
 GIGC_Chunk_Run: Received new grid IM, JM, LM =          15           9
          49
 =================================================
 W R F - G C   T I M E R S
    Domain           1 (Units: s)
 =================================================
  => Coupler Component                       0.220
   -- Physics & Parameterization             0.057
   -- Diagnostics Out                        0.000
  => GEOS-Chem Column                      139.999
  ===> Total Chemistry                     140.219
  => WRF                                   133.207
  ===> Total WRF-GC                        273.425
 max optd  8.2603406E+31
 max taucldi  2.8407441E-05
 max taucldw  2.0404349E-03
 Switching is not necessary as we are already
 in the right domain!
 GIGC_Chunk_Run: Running for in-PET grid #           1
 GIGC_Chunk_Run: Received new grid IM, JM, LM =          15           9
          49
 =================================================
 W R F - G C   T I M E R S
    Domain           1 (Units: s)
 =================================================
  => Coupler Component                       0.257
   -- Physics & Parameterization             0.066
   -- Diagnostics Out                        0.000
  => GEOS-Chem Column                      141.239
  ===> Total Chemistry                     141.497
  => WRF                                   151.470
  ===> Total WRF-GC                        292.967
 max optd  8.2603406E+31
 max taucldi  3.6260932E-05
 max taucldw  2.3209827E-03
 Switching is not necessary as we are already
 in the right domain!
 GIGC_Chunk_Run: Running for in-PET grid #           1
 GIGC_Chunk_Run: Received new grid IM, JM, LM =          15           9
          49
 =================================================
 W R F - G C   T I M E R S
    Domain           1 (Units: s)
 =================================================
  => Coupler Component                       0.296
   -- Physics & Parameterization             0.075
   -- Diagnostics Out                        0.000
  => GEOS-Chem Column                      142.478
  ===> Total Chemistry                     142.774
  => WRF                                   169.661
  ===> Total WRF-GC                        312.435
 max optd  8.2603406E+31
 max taucldi  6.9270447E-02
 max taucldw  2.5751763E-03
 Switching is not necessary as we are already
 in the right domain!
 GIGC_Chunk_Run: Running for in-PET grid #           1
 GIGC_Chunk_Run: Received new grid IM, JM, LM =          15           9
          49
 =================================================
 W R F - G C   T I M E R S
    Domain           1 (Units: s)
 =================================================
  => Coupler Component                       0.330
   -- Physics & Parameterization             0.084
   -- Diagnostics Out                        0.000
  => GEOS-Chem Column                      143.713
  ===> Total Chemistry                     144.043
  => WRF                                   187.855
  ===> Total WRF-GC                        331.898
 max optd  8.2603406E+31
 max taucldi  0.1204872    
 max taucldw  2.7948734E-03
 Switching is not necessary as we are already
 in the right domain!
 GIGC_Chunk_Run: Running for in-PET grid #           1
 GIGC_Chunk_Run: Received new grid IM, JM, LM =          15           9
          49
 =================================================
 W R F - G C   T I M E R S
    Domain           1 (Units: s)
 =================================================
  => Coupler Component                       0.364
   -- Physics & Parameterization             0.093
   -- Diagnostics Out                        0.000
  => GEOS-Chem Column                      144.929
  ===> Total Chemistry                     145.293
  => WRF                                   206.109
  ===> Total WRF-GC                        351.402
 max optd  8.2603406E+31
 max taucldi  0.1580495    
 max taucldw  2.9911271E-03
 Switching is not necessary as we are already
 in the right domain!
 GIGC_Chunk_Run: Running for in-PET grid #           1
 GIGC_Chunk_Run: Received new grid IM, JM, LM =          15           9
          49
 =================================================
 W R F - G C   T I M E R S
    Domain           1 (Units: s)
 =================================================
  => Coupler Component                       0.396
   -- Physics & Parameterization             0.103
   -- Diagnostics Out                        0.000
  => GEOS-Chem Column                      146.116
  ===> Total Chemistry                     146.512
  => WRF                                   224.302
  ===> Total WRF-GC                        370.814
 max optd  8.2603406E+31
 max taucldi  0.1533436    
 max taucldw  3.1878774E-03
 Switching is not necessary as we are already
 in the right domain!
 GIGC_Chunk_Run: Running for in-PET grid #           1
 GIGC_Chunk_Run: Received new grid IM, JM, LM =          15           9
          49
 =================================================
 W R F - G C   T I M E R S
    Domain           1 (Units: s)
 =================================================
  => Coupler Component                       0.428
   -- Physics & Parameterization             0.112
   -- Diagnostics Out                        0.000
  => GEOS-Chem Column                      147.294
  ===> Total Chemistry                     147.722
  => WRF                                   242.414
  ===> Total WRF-GC                        390.136
 HOURLY EMISSIONS UPDATE TIME     3600.0       0.0
mediation_integrate: med_read_wrf_chem_emissions: Read emissions for time 2018-01-01_01:00:00
 max optd  8.2603406E+31
 max taucldi  0.1562446    
 max taucldw  3.3916230E-03
 Switching is not necessary as we are already
 in the right domain!
 GIGC_Chunk_Run: Running for in-PET grid #           1
 GIGC_Chunk_Run: Received new grid IM, JM, LM =          15           9
          49
 =================================================
 W R F - G C   T I M E R S
    Domain           1 (Units: s)
 =================================================
  => Coupler Component                       0.458
   -- Physics & Parameterization             0.121
   -- Diagnostics Out                        0.000
  => GEOS-Chem Column                      148.467
  ===> Total Chemistry                     148.925
  => WRF                                   260.618
  ===> Total WRF-GC                        409.543
 max optd  8.2603406E+31
 max taucldi  0.1612167    
 max taucldw  3.6154557E-03
 Switching is not necessary as we are already
 in the right domain!
 GIGC_Chunk_Run: Running for in-PET grid #           1
 GIGC_Chunk_Run: Received new grid IM, JM, LM =          15           9
          49
 =================================================
 W R F - G C   T I M E R S
    Domain           1 (Units: s)
 =================================================
  => Coupler Component                       0.492
   -- Physics & Parameterization             0.130
   -- Diagnostics Out                        0.000
  => GEOS-Chem Column                      149.589
  ===> Total Chemistry                     150.081
  => WRF                                   278.814
  ===> Total WRF-GC                        428.895
 max optd  8.2603406E+31
 max taucldi  0.1417664    
 max taucldw  3.8577081E-03
 Switching is not necessary as we are already
 in the right domain!
 GIGC_Chunk_Run: Running for in-PET grid #           1
 GIGC_Chunk_Run: Received new grid IM, JM, LM =          15           9
          49
 =================================================
 W R F - G C   T I M E R S
    Domain           1 (Units: s)
 =================================================
  => Coupler Component                       0.528
   -- Physics & Parameterization             0.140
   -- Diagnostics Out                        0.000
  => GEOS-Chem Column                      150.656
  ===> Total Chemistry                     151.183
  => WRF                                   296.933
  ===> Total WRF-GC                        448.116
 max optd  8.2603406E+31
 max taucldi  0.1221615    
 max taucldw  4.1223369E-03
 Switching is not necessary as we are already
 in the right domain!
 GIGC_Chunk_Run: Running for in-PET grid #           1
 GIGC_Chunk_Run: Received new grid IM, JM, LM =          15           9
          49
 =================================================
 W R F - G C   T I M E R S
    Domain           1 (Units: s)
 =================================================
  => Coupler Component                       0.563
   -- Physics & Parameterization             0.149
   -- Diagnostics Out                        0.000
  => GEOS-Chem Column                      151.728
  ===> Total Chemistry                     152.290
  => WRF                                   315.206
  ===> Total WRF-GC                        467.496
 max optd  8.2603406E+31
 max taucldi  0.1118227    
 max taucldw  4.4068792E-03
 Switching is not necessary as we are already
 in the right domain!
 GIGC_Chunk_Run: Running for in-PET grid #           1
 GIGC_Chunk_Run: Received new grid IM, JM, LM =          15           9
          49
 =================================================
 W R F - G C   T I M E R S
    Domain           1 (Units: s)
 =================================================
  => Coupler Component                       0.600
   -- Physics & Parameterization             0.158
   -- Diagnostics Out                        0.000
  => GEOS-Chem Column                      152.784
  ===> Total Chemistry                     153.383
  => WRF                                   333.416
  ===> Total WRF-GC                        486.800
 max optd  8.2603406E+31
 max taucldi  0.1169712    
 max taucldw  4.7030030E-03
 Switching is not necessary as we are already
 in the right domain!
 GIGC_Chunk_Run: Running for in-PET grid #           1
 GIGC_Chunk_Run: Received new grid IM, JM, LM =          15           9
          49
 =================================================
 W R F - G C   T I M E R S
    Domain           1 (Units: s)
 =================================================
  => Coupler Component                       0.639
   -- Physics & Parameterization             0.167
   -- Diagnostics Out                        0.000
  => GEOS-Chem Column                      153.842
  ===> Total Chemistry                     154.481
  => WRF                                   351.597
  ===> Total WRF-GC                        506.078
 max optd  8.2603406E+31
 max taucldi  0.1325294    
 max taucldw  5.0030686E-03
 Switching is not necessary as we are already
 in the right domain!
 GIGC_Chunk_Run: Running for in-PET grid #           1
 GIGC_Chunk_Run: Received new grid IM, JM, LM =          15           9
          49
 =================================================
 W R F - G C   T I M E R S
    Domain           1 (Units: s)
 =================================================
  => Coupler Component                       0.676
   -- Physics & Parameterization             0.176
   -- Diagnostics Out                        0.000
  => GEOS-Chem Column                      154.904
  ===> Total Chemistry                     155.580
  => WRF                                   369.854
  ===> Total WRF-GC                        525.434
 max optd  8.2603406E+31
 max taucldi  0.1167792    
 max taucldw  5.3155706E-03
 Switching is not necessary as we are already
 in the right domain!
 GIGC_Chunk_Run: Running for in-PET grid #           1
 GIGC_Chunk_Run: Received new grid IM, JM, LM =          15           9
          49
 =================================================
 W R F - G C   T I M E R S
    Domain           1 (Units: s)
 =================================================
  => Coupler Component                       0.717
   -- Physics & Parameterization             0.185
   -- Diagnostics Out                        0.000
  => GEOS-Chem Column                      155.969
  ===> Total Chemistry                     156.685
  => WRF                                   388.200
  ===> Total WRF-GC                        544.886
 max optd  8.2603406E+31
 max taucldi  0.1139972    
 max taucldw  5.6438395E-03
 Switching is not necessary as we are already
 in the right domain!
 GIGC_Chunk_Run: Running for in-PET grid #           1
 GIGC_Chunk_Run: Received new grid IM, JM, LM =          15           9
          49
 =================================================
 W R F - G C   T I M E R S
    Domain           1 (Units: s)
 =================================================
  => Coupler Component                       0.760
   -- Physics & Parameterization             0.194
   -- Diagnostics Out                        0.000
  => GEOS-Chem Column                      157.024
  ===> Total Chemistry                     157.784
  => WRF                                   406.291
  ===> Total WRF-GC                        564.075
 max optd  8.2603406E+31
 max taucldi  0.1104422    
 max taucldw  5.9926147E-03
 Switching is not necessary as we are already
 in the right domain!
 GIGC_Chunk_Run: Running for in-PET grid #           1
 GIGC_Chunk_Run: Received new grid IM, JM, LM =          15           9
          49
 =================================================
 W R F - G C   T I M E R S
    Domain           1 (Units: s)
 =================================================
  => Coupler Component                       0.799
   -- Physics & Parameterization             0.204
   -- Diagnostics Out                        0.000
  => GEOS-Chem Column                      158.064
  ===> Total Chemistry                     158.863
  => WRF                                   424.469
  ===> Total WRF-GC                        583.332
 max optd  8.2603406E+31
 max taucldi  8.8667534E-02
 max taucldw  6.3787666E-03
 Switching is not necessary as we are already
 in the right domain!
 GIGC_Chunk_Run: Running for in-PET grid #           1
 GIGC_Chunk_Run: Received new grid IM, JM, LM =          15           9
          49
 =================================================
 W R F - G C   T I M E R S
    Domain           1 (Units: s)
 =================================================
  => Coupler Component                       0.842
   -- Physics & Parameterization             0.213
   -- Diagnostics Out                        0.000
  => GEOS-Chem Column                      159.133
  ===> Total Chemistry                     159.975
  => WRF                                   442.762
  ===> Total WRF-GC                        602.737
 max optd  8.2603406E+31
 max taucldi  5.7704985E-02
 max taucldw  6.7941556E-03
 Switching is not necessary as we are already
 in the right domain!
 GIGC_Chunk_Run: Running for in-PET grid #           1
 GIGC_Chunk_Run: Received new grid IM, JM, LM =          15           9
          49
 =================================================
 W R F - G C   T I M E R S
    Domain           1 (Units: s)
 =================================================
  => Coupler Component                       0.883
   -- Physics & Parameterization             0.222
   -- Diagnostics Out                        0.000
  => GEOS-Chem Column                      160.204
  ===> Total Chemistry                     161.087
  => WRF                                   460.922
  ===> Total WRF-GC                        622.008
 HOURLY EMISSIONS UPDATE TIME     7200.0       0.0
mediation_integrate: med_read_wrf_chem_emissions: Read emissions for time 2018-01-01_02:00:00
 max optd  8.2603406E+31
 max taucldi  3.8313385E-02
 max taucldw  0.6174514    
 Switching is not necessary as we are already
 in the right domain!
 GIGC_Chunk_Run: Running for in-PET grid #           1
 GIGC_Chunk_Run: Received new grid IM, JM, LM =          15           9
          49
 =================================================
 W R F - G C   T I M E R S
    Domain           1 (Units: s)
 =================================================
  => Coupler Component                       0.928
   -- Physics & Parameterization             0.231
   -- Diagnostics Out                        0.000
  => GEOS-Chem Column                      161.255
  ===> Total Chemistry                     162.183
  => WRF                                   479.102
  ===> Total WRF-GC                        641.285
 max optd  8.2603406E+31
 max taucldi  5.0354328E-02
 max taucldw   1.520654    
 Switching is not necessary as we are already
 in the right domain!
 GIGC_Chunk_Run: Running for in-PET grid #           1
 GIGC_Chunk_Run: Received new grid IM, JM, LM =          15           9
          49
 =================================================
 W R F - G C   T I M E R S
    Domain           1 (Units: s)
 =================================================
  => Coupler Component                       0.970
   -- Physics & Parameterization             0.241
   -- Diagnostics Out                        0.000
  => GEOS-Chem Column                      162.331
  ===> Total Chemistry                     163.301
  => WRF                                   497.317
  ===> Total WRF-GC                        660.618
 max optd  8.2603406E+31
 max taucldi  5.8412526E-02
 max taucldw   3.021075    
 Switching is not necessary as we are already
 in the right domain!
 GIGC_Chunk_Run: Running for in-PET grid #           1
 GIGC_Chunk_Run: Received new grid IM, JM, LM =          15           9
          49
 =================================================
 W R F - G C   T I M E R S
    Domain           1 (Units: s)
 =================================================
  => Coupler Component                       1.014
   -- Physics & Parameterization             0.250
   -- Diagnostics Out                        0.000
  => GEOS-Chem Column                      163.387
  ===> Total Chemistry                     164.402
  => WRF                                   515.406
  ===> Total WRF-GC                        679.808
 max optd  8.2603406E+31
 max taucldi  6.6833228E-02
 max taucldw   5.315828    
 Switching is not necessary as we are already
 in the right domain!
 GIGC_Chunk_Run: Running for in-PET grid #           1
 GIGC_Chunk_Run: Received new grid IM, JM, LM =          15           9
          49
 =================================================
 W R F - G C   T I M E R S
    Domain           1 (Units: s)
 =================================================
  => Coupler Component                       1.060
   -- Physics & Parameterization             0.259
   -- Diagnostics Out                        0.000
  => GEOS-Chem Column                      164.452
  ===> Total Chemistry                     165.512
  => WRF                                   533.506
  ===> Total WRF-GC                        699.018
 max optd  8.2603406E+31
 max taucldi  7.9262964E-02
 max taucldw   6.953253    
 Switching is not necessary as we are already
 in the right domain!
 GIGC_Chunk_Run: Running for in-PET grid #           1
 GIGC_Chunk_Run: Received new grid IM, JM, LM =          15           9
          49
 =================================================
 W R F - G C   T I M E R S
    Domain           1 (Units: s)
 =================================================
  => Coupler Component                       1.107
   -- Physics & Parameterization             0.268
   -- Diagnostics Out                        0.000
  => GEOS-Chem Column                      165.498
  ===> Total Chemistry                     166.605
  => WRF                                   551.627
  ===> Total WRF-GC                        718.232
 max optd  8.2603406E+31
 max taucldi  7.7422336E-02
 max taucldw   7.790363    
 Switching is not necessary as we are already
 in the right domain!
 GIGC_Chunk_Run: Running for in-PET grid #           1
 GIGC_Chunk_Run: Received new grid IM, JM, LM =          15           9
          49
 =================================================
 W R F - G C   T I M E R S
    Domain           1 (Units: s)
 =================================================
  => Coupler Component                       1.149
   -- Physics & Parameterization             0.278
   -- Diagnostics Out                        0.000
  => GEOS-Chem Column                      166.580
  ===> Total Chemistry                     167.729
  => WRF                                   569.768
  ===> Total WRF-GC                        737.497
 max optd  8.2603406E+31
 max taucldi  8.6294480E-02
 max taucldw   6.822749    
 Switching is not necessary as we are already
 in the right domain!
 GIGC_Chunk_Run: Running for in-PET grid #           1
 GIGC_Chunk_Run: Received new grid IM, JM, LM =          15           9
          49
 =================================================
 W R F - G C   T I M E R S
    Domain           1 (Units: s)
 =================================================
  => Coupler Component                       1.193
   -- Physics & Parameterization             0.287
   -- Diagnostics Out                        0.000
  => GEOS-Chem Column                      167.632
  ===> Total Chemistry                     168.825
  => WRF                                   587.860
  ===> Total WRF-GC                        756.685
 max optd  8.2603406E+31
 max taucldi  9.6660428E-02
 max taucldw   6.917525    
 Switching is not necessary as we are already
 in the right domain!
 GIGC_Chunk_Run: Running for in-PET grid #           1
 GIGC_Chunk_Run: Received new grid IM, JM, LM =          15           9
          49
 =================================================
 W R F - G C   T I M E R S
    Domain           1 (Units: s)
 =================================================
  => Coupler Component                       1.238
   -- Physics & Parameterization             0.296
   -- Diagnostics Out                        0.000
  => GEOS-Chem Column                      168.694
  ===> Total Chemistry                     169.932
  => WRF                                   605.949
  ===> Total WRF-GC                        775.881
 max optd  8.2603406E+31
 max taucldi  9.6336454E-02
 max taucldw   6.420973    
 Switching is not necessary as we are already
 in the right domain!
 GIGC_Chunk_Run: Running for in-PET grid #           1
 GIGC_Chunk_Run: Received new grid IM, JM, LM =          15           9
          49
 =================================================
 W R F - G C   T I M E R S
    Domain           1 (Units: s)
 =================================================
  => Coupler Component                       1.282
   -- Physics & Parameterization             0.306
   -- Diagnostics Out                        0.000
  => GEOS-Chem Column                      169.764
  ===> Total Chemistry                     171.046
  => WRF                                   624.044
  ===> Total WRF-GC                        795.090
 max optd  8.2603406E+31
 max taucldi  0.1117387    
 max taucldw   5.240689    
 Switching is not necessary as we are already
 in the right domain!
 GIGC_Chunk_Run: Running for in-PET grid #           1
 GIGC_Chunk_Run: Received new grid IM, JM, LM =          15           9
          49
 =================================================
 W R F - G C   T I M E R S
    Domain           1 (Units: s)
 =================================================
  => Coupler Component                       1.324
   -- Physics & Parameterization             0.315
   -- Diagnostics Out                        0.000
  => GEOS-Chem Column                      170.835
  ===> Total Chemistry                     172.160
  => WRF                                   642.162
  ===> Total WRF-GC                        814.322
 max optd  8.2603406E+31
 max taucldi  0.1194825    
 max taucldw   3.427886    
 Switching is not necessary as we are already
 in the right domain!
 GIGC_Chunk_Run: Running for in-PET grid #           1
 GIGC_Chunk_Run: Received new grid IM, JM, LM =          15           9
          49
 =================================================
 W R F - G C   T I M E R S
    Domain           1 (Units: s)
 =================================================
  => Coupler Component                       1.366
   -- Physics & Parameterization             0.324
   -- Diagnostics Out                        0.000
  => GEOS-Chem Column                      171.907
  ===> Total Chemistry                     173.273
  => WRF                                   660.206
  ===> Total WRF-GC                        833.479
 max optd  8.2603406E+31
 max taucldi  0.1301569    
 max taucldw  0.7028112    
 Switching is not necessary as we are already
 in the right domain!
 GIGC_Chunk_Run: Running for in-PET grid #           1
 GIGC_Chunk_Run: Received new grid IM, JM, LM =          15           9
          49
 =================================================
 W R F - G C   T I M E R S
    Domain           1 (Units: s)
 =================================================
  => Coupler Component                       1.407
   -- Physics & Parameterization             0.333
   -- Diagnostics Out                        0.000
  => GEOS-Chem Column                      172.980
  ===> Total Chemistry                     174.387
  => WRF                                   678.264
  ===> Total WRF-GC                        852.651
 HOURLY EMISSIONS UPDATE TIME    10800.0       0.0
mediation_integrate: med_read_wrf_chem_emissions: Read emissions for time 2018-01-01_03:00:00
 max optd  8.2603406E+31
 max taucldi  0.1406451    
 max taucldw  1.3011251E-02
 Switching is not necessary as we are already
 in the right domain!
 GIGC_Chunk_Run: Running for in-PET grid #           1
 GIGC_Chunk_Run: Received new grid IM, JM, LM =          15           9
          49
 =================================================
 W R F - G C   T I M E R S
    Domain           1 (Units: s)
 =================================================
  => Coupler Component                       1.450
   -- Physics & Parameterization             0.343
   -- Diagnostics Out                        0.000
  => GEOS-Chem Column                      174.048
  ===> Total Chemistry                     175.498
  => WRF                                   696.373
  ===> Total WRF-GC                        871.871
 max optd  8.2603406E+31
 max taucldi  0.1549542    
 max taucldw  1.3277601E-02
 Switching is not necessary as we are already
 in the right domain!
 GIGC_Chunk_Run: Running for in-PET grid #           1
 GIGC_Chunk_Run: Received new grid IM, JM, LM =          15           9
          49
 =================================================
 W R F - G C   T I M E R S
    Domain           1 (Units: s)
 =================================================
  => Coupler Component                       1.490
   -- Physics & Parameterization             0.352
   -- Diagnostics Out                        0.000
  => GEOS-Chem Column                      175.120
  ===> Total Chemistry                     176.609
  => WRF                                   714.440
  ===> Total WRF-GC                        891.050
 max optd  8.2603406E+31
 max taucldi  0.1598559    
 max taucldw  1.3434320E-02
 Switching is not necessary as we are already
 in the right domain!
 GIGC_Chunk_Run: Running for in-PET grid #           1
 GIGC_Chunk_Run: Received new grid IM, JM, LM =          15           9
          49
 =================================================
 W R F - G C   T I M E R S
    Domain           1 (Units: s)
 =================================================
  => Coupler Component                       1.531
   -- Physics & Parameterization             0.361
   -- Diagnostics Out                        0.000
  => GEOS-Chem Column                      176.195
  ===> Total Chemistry                     177.725
  => WRF                                   732.534
  ===> Total WRF-GC                        910.260
 max optd  8.2603406E+31
 max taucldi  0.1661665    
 max taucldw  1.3502907E-02
 Switching is not necessary as we are already
 in the right domain!
 GIGC_Chunk_Run: Running for in-PET grid #           1
 GIGC_Chunk_Run: Received new grid IM, JM, LM =          15           9
          49
 =================================================
 W R F - G C   T I M E R S
    Domain           1 (Units: s)
 =================================================
  => Coupler Component                       1.572
   -- Physics & Parameterization             0.370
   -- Diagnostics Out                        0.000
  => GEOS-Chem Column                      177.275
  ===> Total Chemistry                     178.847
  => WRF                                   750.591
  ===> Total WRF-GC                        929.439
 max optd  8.2603406E+31
 max taucldi  0.1729953    
 max taucldw  1.3508741E-02
 Switching is not necessary as we are already
 in the right domain!
 GIGC_Chunk_Run: Running for in-PET grid #           1
 GIGC_Chunk_Run: Received new grid IM, JM, LM =          15           9
          49
 =================================================
 W R F - G C   T I M E R S
    Domain           1 (Units: s)
 =================================================
  => Coupler Component                       1.614
   -- Physics & Parameterization             0.379
   -- Diagnostics Out                        0.000
  => GEOS-Chem Column                      178.350
  ===> Total Chemistry                     179.963
  => WRF                                   768.624
  ===> Total WRF-GC                        948.587
 max optd  8.2603406E+31
 max taucldi  0.1717322    
 max taucldw  1.3485287E-02
 Switching is not necessary as we are already
 in the right domain!
 GIGC_Chunk_Run: Running for in-PET grid #           1
 GIGC_Chunk_Run: Received new grid IM, JM, LM =          15           9
          49
 =================================================
 W R F - G C   T I M E R S
    Domain           1 (Units: s)
 =================================================
  => Coupler Component                       1.654
   -- Physics & Parameterization             0.388
   -- Diagnostics Out                        0.000
  => GEOS-Chem Column                      179.421
  ===> Total Chemistry                     181.075
  => WRF                                   786.940
  ===> Total WRF-GC                        968.016
 max optd  8.2603406E+31
 max taucldi  0.1734459    
 max taucldw  1.3450249E-02
 Switching is not necessary as we are already
 in the right domain!
 GIGC_Chunk_Run: Running for in-PET grid #           1
 GIGC_Chunk_Run: Received new grid IM, JM, LM =          15           9
          49
 =================================================
 W R F - G C   T I M E R S
    Domain           1 (Units: s)
 =================================================
  => Coupler Component                       1.695
   -- Physics & Parameterization             0.398
   -- Diagnostics Out                        0.000
  => GEOS-Chem Column                      180.497
  ===> Total Chemistry                     182.192
  => WRF                                   805.095
  ===> Total WRF-GC                        987.287
 max optd  8.2603406E+31
 max taucldi  0.1743356    
 max taucldw  1.3416648E-02
 Switching is not necessary as we are already
 in the right domain!
 GIGC_Chunk_Run: Running for in-PET grid #           1
 GIGC_Chunk_Run: Received new grid IM, JM, LM =          15           9
          49
 =================================================
 W R F - G C   T I M E R S
    Domain           1 (Units: s)
 =================================================
  => Coupler Component                       1.735
   -- Physics & Parameterization             0.407
   -- Diagnostics Out                        0.000
  => GEOS-Chem Column                      181.570
  ===> Total Chemistry                     183.306
  => WRF                                   823.111
  ===> Total WRF-GC                       1006.417
 max optd  8.2603406E+31
 max taucldi  0.1742513    
 max taucldw  1.3370228E-02
 Switching is not necessary as we are already
 in the right domain!
 GIGC_Chunk_Run: Running for in-PET grid #           1
 GIGC_Chunk_Run: Received new grid IM, JM, LM =          15           9
          49
 =================================================
 W R F - G C   T I M E R S
    Domain           1 (Units: s)
 =================================================
  => Coupler Component                       1.777
   -- Physics & Parameterization             0.416
   -- Diagnostics Out                        0.000
  => GEOS-Chem Column                      182.644
  ===> Total Chemistry                     184.422
  => WRF                                   841.298
  ===> Total WRF-GC                       1025.720
 max optd  8.2603406E+31
 max taucldi  0.1711852    
 max taucldw  1.3277492E-02
 Switching is not necessary as we are already
 in the right domain!
 GIGC_Chunk_Run: Running for in-PET grid #           1
 GIGC_Chunk_Run: Received new grid IM, JM, LM =          15           9
          49
 =================================================
 W R F - G C   T I M E R S
    Domain           1 (Units: s)
 =================================================
  => Coupler Component                       1.817
   -- Physics & Parameterization             0.426
   -- Diagnostics Out                        0.000
  => GEOS-Chem Column                      183.716
  ===> Total Chemistry                     185.533
  => WRF                                   859.414
  ===> Total WRF-GC                       1044.946
 max optd  8.2603406E+31
 max taucldi  0.1634058    
 max taucldw  1.3117631E-02
 Switching is not necessary as we are already
 in the right domain!
 GIGC_Chunk_Run: Running for in-PET grid #           1
 GIGC_Chunk_Run: Received new grid IM, JM, LM =          15           9
          49
 =================================================
 W R F - G C   T I M E R S
    Domain           1 (Units: s)
 =================================================
  => Coupler Component                       1.856
   -- Physics & Parameterization             0.435
   -- Diagnostics Out                        0.000
  => GEOS-Chem Column                      184.804
  ===> Total Chemistry                     186.661
  => WRF                                   877.492
  ===> Total WRF-GC                       1064.153
 max optd  8.2603406E+31
 max taucldi  0.1648879    
 max taucldw  1.2895609E-02
 Switching is not necessary as we are already
 in the right domain!
 GIGC_Chunk_Run: Running for in-PET grid #           1
 GIGC_Chunk_Run: Received new grid IM, JM, LM =          15           9
          49
 =================================================
 W R F - G C   T I M E R S
    Domain           1 (Units: s)
 =================================================
  => Coupler Component                       1.900
   -- Physics & Parameterization             0.444
   -- Diagnostics Out                        0.000
  => GEOS-Chem Column                      185.877
  ===> Total Chemistry                     187.777
  => WRF                                   895.600
  ===> Total WRF-GC                       1083.377
 HOURLY EMISSIONS UPDATE TIME    14400.0       0.0
mediation_integrate: med_read_wrf_chem_emissions: Read emissions for time 2018-01-01_04:00:00
 max optd  8.2603406E+31
 max taucldi  0.1564683    
 max taucldw  1.2648113E-02
 Switching is not necessary as we are already
 in the right domain!
 GIGC_Chunk_Run: Running for in-PET grid #           1
 GIGC_Chunk_Run: Received new grid IM, JM, LM =          15           9
          49
 =================================================
 W R F - G C   T I M E R S
    Domain           1 (Units: s)
 =================================================
  => Coupler Component                       1.941
   -- Physics & Parameterization             0.454
   -- Diagnostics Out                        0.000
  => GEOS-Chem Column                      186.954
  ===> Total Chemistry                     188.895
  => WRF                                   913.718
  ===> Total WRF-GC                       1102.613
 max optd  8.2603406E+31
 max taucldi  0.1496641    
 max taucldw  1.2419767E-02
 Switching is not necessary as we are already
 in the right domain!
 GIGC_Chunk_Run: Running for in-PET grid #           1
 GIGC_Chunk_Run: Received new grid IM, JM, LM =          15           9
          49
 =================================================
 W R F - G C   T I M E R S
    Domain           1 (Units: s)
 =================================================
  => Coupler Component                       1.984
   -- Physics & Parameterization             0.463
   -- Diagnostics Out                        0.000
  => GEOS-Chem Column                      188.023
  ===> Total Chemistry                     190.007
  => WRF                                   931.823
  ===> Total WRF-GC                       1121.830
 max optd  8.2603406E+31
 max taucldi  0.1435824    
 max taucldw  1.2242058E-02
 Switching is not necessary as we are already
 in the right domain!
 GIGC_Chunk_Run: Running for in-PET grid #           1
 GIGC_Chunk_Run: Received new grid IM, JM, LM =          15           9
          49
 =================================================
 W R F - G C   T I M E R S
    Domain           1 (Units: s)
 =================================================
  => Coupler Component                       2.026
   -- Physics & Parameterization             0.473
   -- Diagnostics Out                        0.000
  => GEOS-Chem Column                      189.101
  ===> Total Chemistry                     191.127
  => WRF                                   950.028
  ===> Total WRF-GC                       1141.155
 max optd  8.2603406E+31
 max taucldi  0.1383341    
 max taucldw  1.2139374E-02
 Switching is not necessary as we are already
 in the right domain!
 GIGC_Chunk_Run: Running for in-PET grid #           1
 GIGC_Chunk_Run: Received new grid IM, JM, LM =          15           9
          49
 =================================================
 W R F - G C   T I M E R S
    Domain           1 (Units: s)
 =================================================
  => Coupler Component                       2.062
   -- Physics & Parameterization             0.482
   -- Diagnostics Out                        0.000
  => GEOS-Chem Column                      190.148
  ===> Total Chemistry                     192.210
  => WRF                                   968.137
  ===> Total WRF-GC                       1160.347
 max optd  8.2603406E+31
 max taucldi  0.1402051    
 max taucldw  1.2124918E-02
 Switching is not necessary as we are already
 in the right domain!
 GIGC_Chunk_Run: Running for in-PET grid #           1
 GIGC_Chunk_Run: Received new grid IM, JM, LM =          15           9
          49
 =================================================
 W R F - G C   T I M E R S
    Domain           1 (Units: s)
 =================================================
  => Coupler Component                       2.103
   -- Physics & Parameterization             0.491
   -- Diagnostics Out                        0.000
  => GEOS-Chem Column                      191.227
  ===> Total Chemistry                     193.330
  => WRF                                   986.269
  ===> Total WRF-GC                       1179.598
 max optd  8.2603406E+31
 max taucldi  0.1408938    
 max taucldw  1.2198203E-02
 Switching is not necessary as we are already
 in the right domain!
 GIGC_Chunk_Run: Running for in-PET grid #           1
 GIGC_Chunk_Run: Received new grid IM, JM, LM =          15           9
          49
 =================================================
 W R F - G C   T I M E R S
    Domain           1 (Units: s)
 =================================================
  => Coupler Component                       2.147
   -- Physics & Parameterization             0.501
   -- Diagnostics Out                        0.000
  => GEOS-Chem Column                      192.288
  ===> Total Chemistry                     194.434
  => WRF                                  1004.389
  ===> Total WRF-GC                       1198.824
 max optd  8.2603406E+31
 max taucldi  0.1458179    
 max taucldw  1.2348871E-02
 Switching is not necessary as we are already
 in the right domain!
 GIGC_Chunk_Run: Running for in-PET grid #           1
 GIGC_Chunk_Run: Received new grid IM, JM, LM =          15           9
          49
 =================================================
 W R F - G C   T I M E R S
    Domain           1 (Units: s)
 =================================================
  => Coupler Component                       2.188
   -- Physics & Parameterization             0.510
   -- Diagnostics Out                        0.000
  => GEOS-Chem Column                      193.378
  ===> Total Chemistry                     195.565
  => WRF                                  1022.557
  ===> Total WRF-GC                       1218.122
 max optd  8.2603406E+31
 max taucldi  0.1516139    
 max taucldw  1.2546669E-02
 Switching is not necessary as we are already
 in the right domain!
 GIGC_Chunk_Run: Running for in-PET grid #           1
 GIGC_Chunk_Run: Received new grid IM, JM, LM =          15           9
          49
 =================================================
 W R F - G C   T I M E R S
    Domain           1 (Units: s)
 =================================================
  => Coupler Component                       2.230
   -- Physics & Parameterization             0.519
   -- Diagnostics Out                        0.000
  => GEOS-Chem Column                      194.449
  ===> Total Chemistry                     196.679
  => WRF                                  1040.635
  ===> Total WRF-GC                       1237.313
 max optd  8.2603406E+31
 max taucldi  0.1619462    
 max taucldw  1.2757259E-02
 Switching is not necessary as we are already
 in the right domain!
 GIGC_Chunk_Run: Running for in-PET grid #           1
 GIGC_Chunk_Run: Received new grid IM, JM, LM =          15           9
          49
 =================================================
 W R F - G C   T I M E R S
    Domain           1 (Units: s)
 =================================================
  => Coupler Component                       2.268
   -- Physics & Parameterization             0.529
   -- Diagnostics Out                        0.000
  => GEOS-Chem Column                      195.527
  ===> Total Chemistry                     197.795
  => WRF                                  1058.756
  ===> Total WRF-GC                       1256.551
 max optd  8.2603406E+31
 max taucldi  0.1771110    
 max taucldw  1.2949180E-02
 Switching is not necessary as we are already
 in the right domain!
 GIGC_Chunk_Run: Running for in-PET grid #           1
 GIGC_Chunk_Run: Received new grid IM, JM, LM =          15           9
          49
 =================================================
 W R F - G C   T I M E R S
    Domain           1 (Units: s)
 =================================================
  => Coupler Component                       2.310
   -- Physics & Parameterization             0.538
   -- Diagnostics Out                        0.000
  => GEOS-Chem Column                      196.604
  ===> Total Chemistry                     198.914
  => WRF                                  1076.857
  ===> Total WRF-GC                       1275.771
 max optd  8.2603406E+31
 max taucldi  0.1835583    
 max taucldw  1.3100798E-02
 Switching is not necessary as we are already
 in the right domain!
 GIGC_Chunk_Run: Running for in-PET grid #           1
 GIGC_Chunk_Run: Received new grid IM, JM, LM =          15           9
          49
 =================================================
 W R F - G C   T I M E R S
    Domain           1 (Units: s)
 =================================================
  => Coupler Component                       2.352
   -- Physics & Parameterization             0.547
   -- Diagnostics Out                        0.000
  => GEOS-Chem Column                      197.688
  ===> Total Chemistry                     200.041
  => WRF                                  1094.923
  ===> Total WRF-GC                       1294.964
 max optd  8.2603406E+31
 max taucldi  0.1902738    
 max taucldw  1.3193339E-02
 Switching is not necessary as we are already
 in the right domain!
 GIGC_Chunk_Run: Running for in-PET grid #           1
 GIGC_Chunk_Run: Received new grid IM, JM, LM =          15           9
          49
 =================================================
 W R F - G C   T I M E R S
    Domain           1 (Units: s)
 =================================================
  => Coupler Component                       2.394
   -- Physics & Parameterization             0.557
   -- Diagnostics Out                        0.000
  => GEOS-Chem Column                      198.762
  ===> Total Chemistry                     201.156
  => WRF                                  1112.936
  ===> Total WRF-GC                       1314.092
 HOURLY EMISSIONS UPDATE TIME    18000.0       0.0
mediation_integrate: med_read_wrf_chem_emissions: Read emissions for time 2018-01-01_05:00:00
 max optd  8.2603406E+31
 max taucldi  0.2040308    
 max taucldw  1.3210607E-02
 Switching is not necessary as we are already
 in the right domain!
 GIGC_Chunk_Run: Running for in-PET grid #           1
 GIGC_Chunk_Run: Received new grid IM, JM, LM =          15           9
          49
 =================================================
 W R F - G C   T I M E R S
    Domain           1 (Units: s)
 =================================================
  => Coupler Component                       2.433
   -- Physics & Parameterization             0.566
   -- Diagnostics Out                        0.000
  => GEOS-Chem Column                      199.848
  ===> Total Chemistry                     202.281
  => WRF                                  1131.082
  ===> Total WRF-GC                       1333.363
 max optd  8.2603406E+31
 max taucldi  0.2083629    
 max taucldw  1.3141963E-02
 Switching is not necessary as we are already
 in the right domain!
 GIGC_Chunk_Run: Running for in-PET grid #           1
 GIGC_Chunk_Run: Received new grid IM, JM, LM =          15           9
          49
 =================================================
 W R F - G C   T I M E R S
    Domain           1 (Units: s)
 =================================================
  => Coupler Component                       2.475
   -- Physics & Parameterization             0.576
   -- Diagnostics Out                        0.000
  => GEOS-Chem Column                      200.921
  ===> Total Chemistry                     203.397
  => WRF                                  1149.155
  ===> Total WRF-GC                       1352.552
 max optd  8.2603406E+31
 max taucldi  0.2193466    
 max taucldw  1.2974487E-02
 Switching is not necessary as we are already
 in the right domain!
 GIGC_Chunk_Run: Running for in-PET grid #           1
 GIGC_Chunk_Run: Received new grid IM, JM, LM =          15           9
          49
 =================================================
 W R F - G C   T I M E R S
    Domain           1 (Units: s)
 =================================================
  => Coupler Component                       2.516
   -- Physics & Parameterization             0.585
   -- Diagnostics Out                        0.000
  => GEOS-Chem Column                      202.005
  ===> Total Chemistry                     204.521
  => WRF                                  1167.230
  ===> Total WRF-GC                       1371.750
 max optd  8.2603406E+31
 max taucldi  0.2395366    
 max taucldw  1.2705575E-02
 Switching is not necessary as we are already
 in the right domain!
 GIGC_Chunk_Run: Running for in-PET grid #           1
 GIGC_Chunk_Run: Received new grid IM, JM, LM =          15           9
          49
 =================================================
 W R F - G C   T I M E R S
    Domain           1 (Units: s)
 =================================================
  => Coupler Component                       2.555
   -- Physics & Parameterization             0.594
   -- Diagnostics Out                        0.000
  => GEOS-Chem Column                      203.085
  ===> Total Chemistry                     205.639
  => WRF                                  1185.338
  ===> Total WRF-GC                       1390.977
 max optd  8.2603406E+31
 max taucldi  0.2522772    
 max taucldw  1.2342921E-02
 Switching is not necessary as we are already
 in the right domain!
 GIGC_Chunk_Run: Running for in-PET grid #           1
 GIGC_Chunk_Run: Received new grid IM, JM, LM =          15           9
          49
 =================================================
 W R F - G C   T I M E R S
    Domain           1 (Units: s)
 =================================================
  => Coupler Component                       2.591
   -- Physics & Parameterization             0.604
   -- Diagnostics Out                        0.000
  => GEOS-Chem Column                      204.175
  ===> Total Chemistry                     206.766
  => WRF                                  1203.490
  ===> Total WRF-GC                       1410.256
 max optd  8.2603406E+31
 max taucldi  0.2608882    
 max taucldw  1.1965830E-02
 Switching is not necessary as we are already
 in the right domain!
 GIGC_Chunk_Run: Running for in-PET grid #           1
 GIGC_Chunk_Run: Received new grid IM, JM, LM =          15           9
          49
 =================================================
 W R F - G C   T I M E R S
    Domain           1 (Units: s)
 =================================================
  => Coupler Component                       2.633
   -- Physics & Parameterization             0.613
   -- Diagnostics Out                        0.000
  => GEOS-Chem Column                      205.244
  ===> Total Chemistry                     207.877
  => WRF                                  1221.537
  ===> Total WRF-GC                       1429.413
 max optd  8.2603406E+31
 max taucldi  0.2737208    
 max taucldw  1.1629538E-02
 Switching is not necessary as we are already
 in the right domain!
 GIGC_Chunk_Run: Running for in-PET grid #           1
 GIGC_Chunk_Run: Received new grid IM, JM, LM =          15           9
          49
 =================================================
 W R F - G C   T I M E R S
    Domain           1 (Units: s)
 =================================================
  => Coupler Component                       2.671
   -- Physics & Parameterization             0.622
   -- Diagnostics Out                        0.000
  => GEOS-Chem Column                      206.332
  ===> Total Chemistry                     209.003
  => WRF                                  1239.724
  ===> Total WRF-GC                       1448.727
 max optd  8.2603406E+31
 max taucldi  0.2821903    
 max taucldw  1.1290672E-02
 Switching is not necessary as we are already
 in the right domain!
 GIGC_Chunk_Run: Running for in-PET grid #           1
 GIGC_Chunk_Run: Received new grid IM, JM, LM =          15           9
          49
 =================================================
 W R F - G C   T I M E R S
    Domain           1 (Units: s)
 =================================================
  => Coupler Component                       2.710
   -- Physics & Parameterization             0.631
   -- Diagnostics Out                        0.000
  => GEOS-Chem Column                      207.420
  ===> Total Chemistry                     210.130
  => WRF                                  1257.792
  ===> Total WRF-GC                       1467.922
 max optd  8.2603406E+31
 max taucldi  0.2680082    
 max taucldw  1.1063647E-02
 Switching is not necessary as we are already
 in the right domain!
 GIGC_Chunk_Run: Running for in-PET grid #           1
 GIGC_Chunk_Run: Received new grid IM, JM, LM =          15           9
          49
 =================================================
 W R F - G C   T I M E R S
    Domain           1 (Units: s)
 =================================================
  => Coupler Component                       2.749
   -- Physics & Parameterization             0.641
   -- Diagnostics Out                        0.000
  => GEOS-Chem Column                      208.505
  ===> Total Chemistry                     211.254
  => WRF                                  1275.925
  ===> Total WRF-GC                       1487.179
 max optd  8.2603406E+31
 max taucldi  0.2523336    
 max taucldw  1.0863674E-02
 Switching is not necessary as we are already
 in the right domain!
 GIGC_Chunk_Run: Running for in-PET grid #           1
 GIGC_Chunk_Run: Received new grid IM, JM, LM =          15           9
          49
 =================================================
 W R F - G C   T I M E R S
    Domain           1 (Units: s)
 =================================================
  => Coupler Component                       2.786
   -- Physics & Parameterization             0.650
   -- Diagnostics Out                        0.000
  => GEOS-Chem Column                      209.591
  ===> Total Chemistry                     212.376
  => WRF                                  1294.296
  ===> Total WRF-GC                       1506.672
 max optd  8.2603406E+31
 max taucldi  0.2552765    
 max taucldw  1.0665396E-02
 Switching is not necessary as we are already
 in the right domain!
 GIGC_Chunk_Run: Running for in-PET grid #           1
 GIGC_Chunk_Run: Received new grid IM, JM, LM =          15           9
          49
 =================================================
 W R F - G C   T I M E R S
    Domain           1 (Units: s)
 =================================================
  => Coupler Component                       2.824
   -- Physics & Parameterization             0.659
   -- Diagnostics Out                        0.000
  => GEOS-Chem Column                      210.675
  ===> Total Chemistry                     213.500
  => WRF                                  1312.394
  ===> Total WRF-GC                       1525.894
 max optd  8.2603406E+31
 max taucldi  0.2508280    
 max taucldw  1.0472762E-02
 Switching is not necessary as we are already
 in the right domain!
 GIGC_Chunk_Run: Running for in-PET grid #           1
 GIGC_Chunk_Run: Received new grid IM, JM, LM =          15           9
          49
 =================================================
 W R F - G C   T I M E R S
    Domain           1 (Units: s)
 =================================================
  => Coupler Component                       2.858
   -- Physics & Parameterization             0.669
   -- Diagnostics Out                        0.000
  => GEOS-Chem Column                      211.761
  ===> Total Chemistry                     214.619
  => WRF                                  1330.484
  ===> Total WRF-GC                       1545.103
 HOURLY EMISSIONS UPDATE TIME    21600.0       0.0
mediation_integrate: med_read_wrf_chem_emissions: Read emissions for time 2018-01-01_06:00:00
 max optd  8.2603406E+31
 max taucldi  0.2377331    
 max taucldw  1.0283954E-02
 Switching is not necessary as we are already
 in the right domain!
 GIGC_Chunk_Run: Running for in-PET grid #           1
 GIGC_Chunk_Run: Received new grid IM, JM, LM =          15           9
          49
 =================================================
 W R F - G C   T I M E R S
    Domain           1 (Units: s)
 =================================================
  => Coupler Component                       2.896
   -- Physics & Parameterization             0.678
   -- Diagnostics Out                        0.000
  => GEOS-Chem Column                      212.850
  ===> Total Chemistry                     215.746
  => WRF                                  1789.138
  ===> Total WRF-GC                       2004.883
 max optd  8.2603406E+31
 max taucldi  0.2271222    
 max taucldw  1.0097202E-02
 Switching is not necessary as we are already
 in the right domain!
 GIGC_Chunk_Run: Running for in-PET grid #           1
 GIGC_Chunk_Run: Received new grid IM, JM, LM =          15           9
          49
 =================================================
 W R F - G C   T I M E R S
    Domain           1 (Units: s)
 =================================================
  => Coupler Component                       2.934
   -- Physics & Parameterization             0.688
   -- Diagnostics Out                        0.000
  => GEOS-Chem Column                      213.949
  ===> Total Chemistry                     216.883
  => WRF                                  1807.243
  ===> Total WRF-GC                       2024.126
 max optd  8.2603406E+31
 max taucldi  0.2134033    
 max taucldw  9.9101597E-03
 Switching is not necessary as we are already
 in the right domain!
 GIGC_Chunk_Run: Running for in-PET grid #           1
 GIGC_Chunk_Run: Received new grid IM, JM, LM =          15           9
          49
 =================================================
 W R F - G C   T I M E R S
    Domain           1 (Units: s)
 =================================================
  => Coupler Component                       2.972
   -- Physics & Parameterization             0.697
   -- Diagnostics Out                        0.000
  => GEOS-Chem Column                      215.032
  ===> Total Chemistry                     218.004
  => WRF                                  1825.467
  ===> Total WRF-GC                       2043.471
 max optd  8.2603406E+31
 max taucldi  0.1967219    
 max taucldw  9.7997161E-03
 Switching is not necessary as we are already
 in the right domain!
 GIGC_Chunk_Run: Running for in-PET grid #           1
 GIGC_Chunk_Run: Received new grid IM, JM, LM =          15           9
          49
 =================================================
 W R F - G C   T I M E R S
    Domain           1 (Units: s)
 =================================================
  => Coupler Component                       3.012
[...]
  => GEOS-Chem Column                      263.780
  ===> Total Chemistry                     268.518
  => WRF                                  2642.194
  ===> Total WRF-GC                       2910.712
 HOURLY EMISSIONS UPDATE TIME    36000.0       0.0
mediation_integrate: med_read_wrf_chem_emissions: Read emissions for time 2018-01-01_10:00:00
 max optd  8.2603406E+31
 max taucldi  1.8594663E-03
 max taucldw  1.6325573E-02
 Switching is not necessary as we are already
 in the right domain!
 GIGC_Chunk_Run: Running for in-PET grid #           1
 GIGC_Chunk_Run: Received new grid IM, JM, LM =          15           9
          49
 =================================================
 W R F - G C   T I M E R S
    Domain           1 (Units: s)
 =================================================
  => Coupler Component                       4.777
   -- Physics & Parameterization             1.124
   -- Diagnostics Out                        0.000
  => GEOS-Chem Column                      264.865
  ===> Total Chemistry                     269.642
  => WRF                                  2660.393
  ===> Total WRF-GC                       2930.035
 max optd  8.2603406E+31
 max taucldi  1.8891027E-03
 max taucldw  1.6410552E-02
 Switching is not necessary as we are already
 in the right domain!
 GIGC_Chunk_Run: Running for in-PET grid #           1
 GIGC_Chunk_Run: Received new grid IM, JM, LM =          15           9
          49
 =================================================
 W R F - G C   T I M E R S
    Domain           1 (Units: s)
 =================================================
  => Coupler Component                       4.819
   -- Physics & Parameterization             1.134
   -- Diagnostics Out                        0.000
  => GEOS-Chem Column                      265.942
  ===> Total Chemistry                     270.761
  => WRF                                  2678.512
  ===> Total WRF-GC                       2949.274
 max optd  8.2603406E+31
 max taucldi  1.9148781E-03
 max taucldw  1.6491236E-02
 Switching is not necessary as we are already
 in the right domain!
 GIGC_Chunk_Run: Running for in-PET grid #           1
 GIGC_Chunk_Run: Received new grid IM, JM, LM =          15           9
          49
 =================================================
 W R F - G C   T I M E R S
    Domain           1 (Units: s)
 =================================================
  => Coupler Component                       4.857
   -- Physics & Parameterization             1.143
   -- Diagnostics Out                        0.000
  => GEOS-Chem Column                      267.031
  ===> Total Chemistry                     271.888
  => WRF                                  2696.635
  ===> Total WRF-GC                       2968.524
 max optd  8.2603406E+31
 max taucldi  1.9356232E-03
 max taucldw  1.6557502E-02
 Switching is not necessary as we are already
 in the right domain!
 GIGC_Chunk_Run: Running for in-PET grid #           1
 GIGC_Chunk_Run: Received new grid IM, JM, LM =          15           9
          49
 =================================================
 W R F - G C   T I M E R S
    Domain           1 (Units: s)
 =================================================
  => Coupler Component                       4.896
   -- Physics & Parameterization             1.152
   -- Diagnostics Out                        0.000
  => GEOS-Chem Column                      268.120
  ===> Total Chemistry                     273.016
  => WRF                                  2714.842
  ===> Total WRF-GC                       2987.858
 max optd  8.2603406E+31
 max taucldi  1.9500797E-03
 max taucldw  1.6598735E-02
 Switching is not necessary as we are already
 in the right domain!
 GIGC_Chunk_Run: Running for in-PET grid #           1
 GIGC_Chunk_Run: Received new grid IM, JM, LM =          15           9
          49
 =================================================
 W R F - G C   T I M E R S
    Domain           1 (Units: s)
 =================================================
  => Coupler Component                       4.934
   -- Physics & Parameterization             1.161
   -- Diagnostics Out                        0.000
  => GEOS-Chem Column                      269.210
  ===> Total Chemistry                     274.144
  => WRF                                  2732.983
  ===> Total WRF-GC                       3007.127
 max optd  8.2603406E+31
 max taucldi  1.9582680E-03
 max taucldw  1.6614078E-02
 Switching is not necessary as we are already
 in the right domain!
 GIGC_Chunk_Run: Running for in-PET grid #           1
 GIGC_Chunk_Run: Received new grid IM, JM, LM =          15           9
          49
 =================================================
 W R F - G C   T I M E R S
    Domain           1 (Units: s)
 =================================================
  => Coupler Component                       4.973
   -- Physics & Parameterization             1.171
   -- Diagnostics Out                        0.000
  => GEOS-Chem Column                      270.307
  ===> Total Chemistry                     275.280
  => WRF                                  2751.059
  ===> Total WRF-GC                       3026.340
 max optd  8.2603406E+31
 max taucldi  1.9611241E-03
 max taucldw  1.6608706E-02
 Switching is not necessary as we are already
 in the right domain!
 GIGC_Chunk_Run: Running for in-PET grid #           1
 GIGC_Chunk_Run: Received new grid IM, JM, LM =          15           9
          49
 =================================================
 W R F - G C   T I M E R S
    Domain           1 (Units: s)
 =================================================
  => Coupler Component                       5.010
   -- Physics & Parameterization             1.180
   -- Diagnostics Out                        0.000
  => GEOS-Chem Column                      271.402
  ===> Total Chemistry                     276.412
  => WRF                                  2769.198
  ===> Total WRF-GC                       3045.610
 max optd  8.2603406E+31
 max taucldi  1.9867099E-03
 max taucldw  1.6583173E-02
 Switching is not necessary as we are already
 in the right domain!
 GIGC_Chunk_Run: Running for in-PET grid #           1
 GIGC_Chunk_Run: Received new grid IM, JM, LM =          15           9
          49
 =================================================
 W R F - G C   T I M E R S
    Domain           1 (Units: s)
 =================================================
  => Coupler Component                       5.047
   -- Physics & Parameterization             1.189
   -- Diagnostics Out                        0.000
  => GEOS-Chem Column                      272.488
  ===> Total Chemistry                     277.535
  => WRF                                  2787.318
  ===> Total WRF-GC                       3064.853
 max optd  8.2603406E+31
 max taucldi  2.0316625E-03
 max taucldw  1.6527548E-02
 Switching is not necessary as we are already
 in the right domain!
 GIGC_Chunk_Run: Running for in-PET grid #           1
 GIGC_Chunk_Run: Received new grid IM, JM, LM =          15           9
          49
 =================================================
 W R F - G C   T I M E R S
    Domain           1 (Units: s)
 =================================================
  => Coupler Component                       5.086
   -- Physics & Parameterization             1.199
   -- Diagnostics Out                        0.000
  => GEOS-Chem Column                      273.578
  ===> Total Chemistry                     278.664
  => WRF                                  2805.425
  ===> Total WRF-GC                       3084.090
 max optd  8.2603406E+31
 max taucldi  2.0771555E-03
 max taucldw  1.6419830E-02
 Switching is not necessary as we are already
 in the right domain!
 GIGC_Chunk_Run: Running for in-PET grid #           1
 GIGC_Chunk_Run: Received new grid IM, JM, LM =          15           9
          49
 =================================================
 W R F - G C   T I M E R S
    Domain           1 (Units: s)
 =================================================
  => Coupler Component                       5.123
   -- Physics & Parameterization             1.208
   -- Diagnostics Out                        0.000
  => GEOS-Chem Column                      274.664
  ===> Total Chemistry                     279.787
  => WRF                                  2823.601
  ===> Total WRF-GC                       3103.388
 max optd  8.2603406E+31
 max taucldi  2.1229926E-03
 max taucldw  1.6239004E-02
 Switching is not necessary as we are already
 in the right domain!
 GIGC_Chunk_Run: Running for in-PET grid #           1
 GIGC_Chunk_Run: Received new grid IM, JM, LM =          15           9
          49
 =================================================
 W R F - G C   T I M E R S
    Domain           1 (Units: s)
 =================================================
  => Coupler Component                       5.160
   -- Physics & Parameterization             1.217
   -- Diagnostics Out                        0.000
  => GEOS-Chem Column                      275.750
  ===> Total Chemistry                     280.910
  => WRF                                  2841.718
  ===> Total WRF-GC                       3122.629
 max optd  8.2603406E+31
 max taucldi  2.1678437E-03
 max taucldw  1.5974116E-02
 Switching is not necessary as we are already
 in the right domain!
 GIGC_Chunk_Run: Running for in-PET grid #           1
 GIGC_Chunk_Run: Received new grid IM, JM, LM =          15           9
          49
 =================================================
 W R F - G C   T I M E R S
    Domain           1 (Units: s)
 =================================================
  => Coupler Component                       5.199
   -- Physics & Parameterization             1.227
   -- Diagnostics Out                        0.000
  => GEOS-Chem Column                      276.837
  ===> Total Chemistry                     282.036
  => WRF                                  2859.893
  ===> Total WRF-GC                       3141.929
 HOURLY EMISSIONS UPDATE TIME    39600.0       0.0
mediation_integrate: med_read_wrf_chem_emissions: Read emissions for time 2018-01-01_11:00:00
 max optd  8.2603406E+31
 max taucldi  2.2093544E-03
 max taucldw  1.5928281E-02
 Switching is not necessary as we are already
 in the right domain!
 GIGC_Chunk_Run: Running for in-PET grid #           1
 GIGC_Chunk_Run: Received new grid IM, JM, LM =          15           9
          49
 =================================================
 W R F - G C   T I M E R S
    Domain           1 (Units: s)
 =================================================
  => Coupler Component                       5.237
   -- Physics & Parameterization             1.236
   -- Diagnostics Out                        0.000
  => GEOS-Chem Column                      277.926
  ===> Total Chemistry                     283.163
  => WRF                                  2878.048
  ===> Total WRF-GC                       3161.211
 max optd  8.2603406E+31
 max taucldi  2.2452087E-03
 max taucldw  1.6020678E-02
 Switching is not necessary as we are already
 in the right domain!
 GIGC_Chunk_Run: Running for in-PET grid #           1
 GIGC_Chunk_Run: Received new grid IM, JM, LM =          15           9
          49
 =================================================
 W R F - G C   T I M E R S
    Domain           1 (Units: s)
 =================================================
  => Coupler Component                       5.276
   -- Physics & Parameterization             1.245
   -- Diagnostics Out                        0.000
  => GEOS-Chem Column                      279.012
  ===> Total Chemistry                     284.288
  => WRF                                  2896.136
  ===> Total WRF-GC                       3180.423
 max optd  8.2603406E+31
 max taucldi  2.2833024E-03
 max taucldw  1.6081702E-02
 Switching is not necessary as we are already
 in the right domain!
 GIGC_Chunk_Run: Running for in-PET grid #           1
 GIGC_Chunk_Run: Received new grid IM, JM, LM =          15           9
          49
 =================================================
 W R F - G C   T I M E R S
    Domain           1 (Units: s)
 =================================================
  => Coupler Component                       5.316
   -- Physics & Parameterization             1.254
   -- Diagnostics Out                        0.000
  => GEOS-Chem Column                      280.101
  ===> Total Chemistry                     285.417
  => WRF                                  2914.340
  ===> Total WRF-GC                       3199.757
 max optd  8.2603406E+31
 max taucldi  2.3077806E-03
 max taucldw  1.6304022E-02
 Switching is not necessary as we are already
 in the right domain!
 GIGC_Chunk_Run: Running for in-PET grid #           1
 GIGC_Chunk_Run: Received new grid IM, JM, LM =          15           9
          49
 =================================================
 W R F - G C   T I M E R S
    Domain           1 (Units: s)
 =================================================
  => Coupler Component                       5.353
   -- Physics & Parameterization             1.264
   -- Diagnostics Out                        0.000
  => GEOS-Chem Column                      281.191
  ===> Total Chemistry                     286.544
  => WRF                                  2932.590
  ===> Total WRF-GC                       3219.134
 max optd  8.2603406E+31
 max taucldi  2.3144120E-03
 max taucldw  1.6473548E-02
 Switching is not necessary as we are already
 in the right domain!
 GIGC_Chunk_Run: Running for in-PET grid #           1
 GIGC_Chunk_Run: Received new grid IM, JM, LM =          15           9
          49
 =================================================
 W R F - G C   T I M E R S
    Domain           1 (Units: s)
 =================================================
  => Coupler Component                       5.389
   -- Physics & Parameterization             1.273
   -- Diagnostics Out                        0.000
  => GEOS-Chem Column                      282.286
  ===> Total Chemistry                     287.676
  => WRF                                  2950.977
  ===> Total WRF-GC                       3238.652
 max optd  8.2603406E+31
 max taucldi  2.6303732E-03
 max taucldw  1.6548011E-02
 Switching is not necessary as we are already
 in the right domain!
 GIGC_Chunk_Run: Running for in-PET grid #           1
 GIGC_Chunk_Run: Received new grid IM, JM, LM =          15           9
          49
 =================================================
 W R F - G C   T I M E R S
    Domain           1 (Units: s)
 =================================================
  => Coupler Component                       5.429
   -- Physics & Parameterization             1.282
   -- Diagnostics Out                        0.000
  => GEOS-Chem Column                      283.372
  ===> Total Chemistry                     288.801
  => WRF                                  2969.337
  ===> Total WRF-GC                       3258.138
 max optd  8.2603406E+31
 max taucldi  5.4841135E-03
 max taucldw  1.6524259E-02
 Switching is not necessary as we are already
 in the right domain!
 GIGC_Chunk_Run: Running for in-PET grid #           1
 GIGC_Chunk_Run: Received new grid IM, JM, LM =          15           9
          49
 =================================================
 W R F - G C   T I M E R S
    Domain           1 (Units: s)
 =================================================
  => Coupler Component                       5.469
   -- Physics & Parameterization             1.291
   -- Diagnostics Out                        0.000
  => GEOS-Chem Column                      284.466
  ===> Total Chemistry                     289.935
  => WRF                                  2987.845
  ===> Total WRF-GC                       3277.781
 max optd  8.2603406E+31
 max taucldi  9.4533283E-03
 max taucldw  1.6398845E-02
 Switching is not necessary as we are already
 in the right domain!
 GIGC_Chunk_Run: Running for in-PET grid #           1
 GIGC_Chunk_Run: Received new grid IM, JM, LM =          15           9
          49
 =================================================
 W R F - G C   T I M E R S
    Domain           1 (Units: s)
 =================================================
  => Coupler Component                       5.513
   -- Physics & Parameterization             1.300
   -- Diagnostics Out                        0.000
  => GEOS-Chem Column                      285.531
  ===> Total Chemistry                     291.044
  => WRF                                  3006.380
  ===> Total WRF-GC                       3297.424
 max optd  8.2603406E+31
 max taucldi  1.2872485E-02
 max taucldw  1.6172143E-02
 Switching is not necessary as we are already
 in the right domain!
 GIGC_Chunk_Run: Running for in-PET grid #           1
 GIGC_Chunk_Run: Received new grid IM, JM, LM =          15           9
          49
 =================================================
 W R F - G C   T I M E R S
    Domain           1 (Units: s)
 =================================================
  => Coupler Component                       5.550
   -- Physics & Parameterization             1.309
   -- Diagnostics Out                        0.000
  => GEOS-Chem Column                      286.619
  ===> Total Chemistry                     292.169
  => WRF                                  3025.037
  ===> Total WRF-GC                       3317.205
 max optd  8.2603406E+31
 max taucldi  1.4397489E-02
 max taucldw  1.5977332E-02
 Switching is not necessary as we are already
 in the right domain!
 GIGC_Chunk_Run: Running for in-PET grid #           1
 GIGC_Chunk_Run: Received new grid IM, JM, LM =          15           9
          49
 =================================================
 W R F - G C   T I M E R S
    Domain           1 (Units: s)
 =================================================
  => Coupler Component                       5.591
   -- Physics & Parameterization             1.319
   -- Diagnostics Out                        0.000
  => GEOS-Chem Column                      287.697
  ===> Total Chemistry                     293.289
  => WRF                                  3043.914
  ===> Total WRF-GC                       3337.202
 max optd  8.2603406E+31
 max taucldi  1.4997282E-02
 max taucldw  1.6300166E-02
 Switching is not necessary as we are already
 in the right domain!
 GIGC_Chunk_Run: Running for in-PET grid #           1
 GIGC_Chunk_Run: Received new grid IM, JM, LM =          15           9
          49
 =================================================
 W R F - G C   T I M E R S
    Domain           1 (Units: s)
 =================================================
  => Coupler Component                       5.630
   -- Physics & Parameterization             1.328
   -- Diagnostics Out                        0.000
  => GEOS-Chem Column                      288.781
  ===> Total Chemistry                     294.411
  => WRF                                  3062.693
  ===> Total WRF-GC                       3357.104
 max optd  8.2603406E+31
 max taucldi  1.8063817E-02
 max taucldw  1.6548265E-02
 Switching is not necessary as we are already
 in the right domain!
 GIGC_Chunk_Run: Running for in-PET grid #           1
 GIGC_Chunk_Run: Received new grid IM, JM, LM =          15           9
          49
 =================================================
 W R F - G C   T I M E R S
    Domain           1 (Units: s)
 =================================================
  => Coupler Component                       5.663
   -- Physics & Parameterization             1.337
   -- Diagnostics Out                        0.000
  => GEOS-Chem Column                      289.861
  ===> Total Chemistry                     295.524
  => WRF                                  3081.408
  ===> Total WRF-GC                       3376.932
d01 2018-01-01_12:00:00 wrf: SUCCESS COMPLETE WRF
