taskid: 2699 hostname: ip-172-31-9-38
Quilting with   1 groups of   0 I/O tasks.
 Ntasks in X           64 , ntasks in Y           72
--- WARNING: traj_opt is zero, but num_traj is not zero; setting num_traj to zero.
--- NOTE: sst_update is 0, setting io_form_auxinput4 = 0 and auxinput4_interval = 0 for all domains
--- NOTE: grid_fdda is 0 for domain      1, setting gfdda interval and ending time to 0 for that domain.
--- NOTE: both grid_sfdda and pxlsm_soil_nudge are 0 for domain      1, setting sgfdda interval and ending time to 0 for that domain.
--- NOTE: obs_nudge_opt is 0 for domain      1, setting obs nudging interval and ending time to 0 for that domain.
--- NOTE: bl_pbl_physics /= 4, implies mfshconv must be 0, resetting
Need MYNN PBL for icloud_bl = 1, resetting to 0
*************************************
No physics suite selected.
Physics options will be used directly from the namelist.
*************************************
--- NOTE: RRTMG radiation is in use, setting:  levsiz=59, alevsiz=12, no_src_types=6
--- NOTE: num_soil_layers has been set to      4
WRF V3.9.1.1 MODEL
 *************************************
 Parent domain
 ids,ide,jds,jde            1         950           1         650
 ims,ime,jms,jme          159         187         373         395
 ips,ipe,jps,jpe          166         180         380         388
 *************************************
DYNAMICS OPTION: Eulerian Mass Coordinate
   alloc_space_field: domain            1 ,              203623800  bytes allocated
  med_initialdata_input: calling input_input
Max map factor in domain 1 =  1.40. Scale the dt in the model accordingly.
INPUT LandUse = "USGS"
 LANDUSE TYPE = "USGS" FOUND          33  CATEGORIES           2  SEASONS WATER CATEGORY =           16  SNOW CATEGORY =           24
INITIALIZE THREE Noah LSM RELATED TABLES
*****************************************************************
  __          _______  ______       _____  _____ _    _ _____
  \ \        / /  __ \|  ____|     / ____|/ ____| |  | |  __ \
   \ \  /\  / /| |__) | |__ ______| |  __| |    | |__| | |__) |
    \ \/  \/ / |  _  /|  __|______| | |_ | |    |  __  |  ___/
     \  /\  /  | | \ \| |         | |__| | |____| |  | | |
      \/  \/   |_|  \_\_|          \_____|\_____|_|  |_|_|
*****************************************************************
         WRF-GC MODEL, VERSION 1811.11 - WRF BINDINGS
 For errors, suggestions & feedback email linhaipeng@pku.edu.cn
*****************************************************************
    This is domain            1
 ### GIGC_Stateful_Mod: Root CPU, after READ_INPUT_FILE
  Linoz Data:  O3 climatology :                  z*=10, 12, ..., 58                             2.700E-08 1.083E-05
  Linoz Data:  Temperature climatology :         z*=10, 12, ..., 58                             1.859E+02 2.904E+02
  Linoz Data:  Column O3 above box climalology : z*=10, 12, ..., 58                             7.538E-02 3.770E+02
  Linoz Data:  P-L O3 climatology (mr/s):        z*=10, 12, ..., 58                            -1.590E-10 2.835E-11
  Linoz Data:  d(P-L)/dO3 (1/s) :                z*=10, 12, ..., 58                            -8.386E-04 7.556E-09
  Linoz Data:  d(P-L)/dT (mr/K) :                z*=10, 12, ..., 58                            -5.742E-12 4.615E-14
  Linoz Data:  d(P-L)/d(column O3) (mr/DU) :     z*=10, 12, ..., 58                            -1.921E-12 5.038E-10
 ### GIGC_Stateful_Mod: Root CPU, after LINOZ_READ
 %%%%%%%%% GIGC IN-PET GRID SWITCHING HACKS %%%%%%%%%
     (Not very) Proudly brought to you by hplin      
 Some debug information:
 ID:           1
 IM, JM, LM:          15           9          49  will be set as PAR
 Allocs: CMN T GC F
 RC at entry-point:           0
 %%%%%%%%%%%%%%%%%%%%%%%%%%%%%%%%%%%%%%%%%%%%%%%%%%%%
 No need to switch HcoState for ID           1
 Exit RC:            0
 %%%%%%%%%    FINISHED GIGC_Switch_Dims    %%%%%%%%%
 GIGC_Chunk_Init: Received new grid IM, JM, LM =          15           9
          49
     ### GIGC_INIT_SIMULATION: after Input_Opt% setups
     ### GIGC_INIT_SIMULATION: after GC_Init_All
     ### GIGC_INIT_SIMULATION: after GC_Init_Extra
     ### GIGC_INIT_SIMULATION: after INIT_FJX
 # GIGC_CHUNK_MOD: after SV save, ID =           1
 WRFGC chemics_init: Following information regarding Input_Opt% (for all doms)
 After domain           1
 HPC:  T
 LPRT:  F
 DoConv:  T
 DoDryDep:  T
 DoEmis:  T
 DoChem:  T
 DoTurb:  T
 DoWetDep:  T

 tropopause_init: DONE intialized domain            1

 mediation_integrate: med_read_wrf_chem_emissions: Open file wrfchemi_00z_d01
 HOURLY EMISSIONS UPDATE TIME        0.0       0.0
mediation_integrate: med_read_wrf_chem_emissions: Read emissions for time 2018-01-01_00:00:00
open_aux_u : error opening wrffirechemi_d01_2018-01-01_00:00:00 for reading. 100
open_aux_u : error opening wrfchemi_gocart_bg_d01 for reading. 100
d01 2018-01-01_00:00:00 Input data processed for aux input   8 for domain   1
open_aux_u : error opening wrfchemv_d01 for reading. 100
 Tile Strategy is not specified. Assuming 1D-Y
WRF TILE   1 IS    166 IE    180 JS    380 JE    388
WRF NUMBER OF TILES =   1
 max optd  3.3547268E+12
 max taucldi  0.0000000E+00
 max taucldw  0.0000000E+00
 =================================================
 W R F - G C   T I M E R S
    Domain           1 (Units: s)
 =================================================
  => Coupler Component                       0.027
   -- Physics & Parameterization             0.001
   -- Diagnostics Out                        0.000
  => GEOS-Chem Column                        0.000
  ===> Total Chemistry                       0.027
  => WRF                                     0.000
  ===> Total WRF-GC                          0.027
 max optd  3.3547268E+12
 max taucldi  1.0000007E-14
 max taucldw  1.0000007E-14
 %%%%%%%%% GIGC IN-PET GRID SWITCHING HACKS %%%%%%%%%
     (Not very) Proudly brought to you by hplin      
 Some debug information:
 ID:           1
 IM, JM, LM:          15           9          49  will be set as PAR
 Allocs: CMN T GC T
 RC at entry-point:           0
 %%%%%%%%%%%%%%%%%%%%%%%%%%%%%%%%%%%%%%%%%%%%%%%%%%%%
 No need to switch HcoState for ID           1
 Debug HcoState nSpc, NX, NY, NZ         163          15           9          49
 Exit RC:            0
 %%%%%%%%%    FINISHED GIGC_Switch_Dims    %%%%%%%%%
 GIGC_Chunk_Run: Running for in-PET grid #           1
 GIGC_Chunk_Run: Received new grid IM, JM, LM =          15           9
          49
HEMCO: Opening /fsx/HEMCO/BIOFUEL/v2014-07/biofuel.geos.4x5.nc
HEMCO: Opening /fsx/HEMCO/BROMINE/v2015-02/Bromocarb_Liang2010.nc
HEMCO: Opening /fsx/HEMCO/ACET/v2014-07/ACET_seawater.generic.1x1.nc
HEMCO: Opening /fsx/HEMCO/SOILNOX/v2014-07/DepReservoirDefault.nc
HEMCO: Opening /fsx/HEMCO/SOILNOX/v2014-07/soilNOx.landtype.generic.025x025.1L.nc
HEMCO: Opening /fsx/HEMCO/SOILNOX/v2014-07/soilNOx.climate.generic.05x05.nc
HEMCO: Opening /fsx/HEMCO/DUST_DEAD/v2014-07/dst_tibds.geos.4x5.nc
HEMCO: Opening /fsx/HEMCO/DUST_DEAD/v2014-07/GOCART_src_fn.geos.4x5.nc
HEMCO: Opening /fsx/HEMCO/MEGAN/v2018-05/MEGAN2.1_EF.geos.025x03125.nc
HEMCO: Opening /fsx/HEMCO/MEGAN/v2017-07/CLM4_PFT.geos.025x03125.nc
HEMCO: Opening /fsx/HEMCO/TIMEZONES/v2015-02/timezones_voronoi_1x1.nc
HEMCO: Opening /fsx/HEMCO/STRAT/v2015-01/Bry/GEOSCCM_Bry.200701.day.nc
HEMCO: Opening /fsx/HEMCO/STRAT/v2015-01/Bry/GEOSCCM_Bry.200701.night.nc
HEMCO: Opening /fsx/HEMCO/OMOC/v2018-01/OMOC.DJF.01x01.nc
HEMCO: Opening /fsx/HEMCO/OMOC/v2018-01/OMOC.MAM.01x01.nc
HEMCO: Opening /fsx/HEMCO/OMOC/v2018-01/OMOC.JJA.01x01.nc
HEMCO: Opening /fsx/HEMCO/OMOC/v2018-01/OMOC.SON.01x01.nc
HEMCO: Opening /fsx/HEMCO/AnnualScalar/v2014-07/AnnualScalar.geos.1x1.nc
HEMCO: Opening /fsx/HEMCO/EDGARv42/v2015-02/NO/EDGAR_hourly_NOxScal.nc
HEMCO: Opening /fsx/HEMCO/MASKS/v2018-09/EMEP_mask.geos.1x1.20151222.nc
HEMCO: Opening /fsx/HEMCO/MASKS/v2018-09/Canada_mask.geos.1x1.nc
HEMCO: Opening /fsx/HEMCO/MASKS/v2018-09/SE_Asia_mask.generic.1x1.nc
HEMCO: Opening /fsx/HEMCO/MASKS/v2018-09/MIX_Asia_mask.generic.025x025.nc
HEMCO: Opening /fsx/HEMCO/MASKS/v2018-09/CONUS_Mask.01x01.nc
HEMCO: Opening /fsx/HEMCO/MASKS/v2018-09/AF_LANDMASK.geos.05x0666.global.nc
HEMCO: Opening /fsx/HEMCO/MASKS/v2018-09/China_mask.generic.1x1.nc
HEMCO: Opening /fsx/HEMCO/MASKS/v2018-09/India_mask.generic.1x1.nc
HEMCO: Opening /fsx/HEMCO/AnnualScalar/v2014-07/AnnualScalar.geos.1x1.nc
HEMCO: Opening /fsx/HEMCO/NH3/v2014-07/NH3_geos.4x5.nc
HEMCO: Opening /fsx/HEMCO/NH3/v2018-04/NH3_Arctic_seabirds.nc
HEMCO: Opening /fsx/HEMCO/CEDS/v2018-08/2014/NO-em-anthro_CMIP_CEDS_2014.nc
HEMCO: Opening /fsx/HEMCO/CEDS/v2018-08/2014/CO-em-anthro_CMIP_CEDS_2014.nc
HEMCO: Opening /fsx/HEMCO/CEDS/v2018-08/2014/SO2-em-anthro_CMIP_CEDS_2014.nc
HEMCO: Opening /fsx/HEMCO/CEDS/v2018-08/2014/NH3-em-anthro_CMIP_CEDS_2014.nc
HEMCO: Opening /fsx/HEMCO/CEDS/v2018-08/2014/BC-em-anthro_CMIP_CEDS_2014.nc
HEMCO: Opening /fsx/HEMCO/CEDS/v2018-08/2014/OC-em-anthro_CMIP_CEDS_2014.nc
HEMCO: Opening /fsx/HEMCO/CEDS/v2018-08/2014/EOH-em-anthro_CMIP_CEDS_2014.nc
HEMCO: Opening /fsx/HEMCO/CEDS/v2018-08/2014/C2H6-em-anthro_CMIP_CEDS_2014.nc
HEMCO: Opening /fsx/HEMCO/CEDS/v2018-08/2014/C3H8-em-anthro_CMIP_CEDS_2014.nc
HEMCO: Opening /fsx/HEMCO/CEDS/v2018-08/2014/ALK4_butanes-em-anthro_CMIP_CEDS_2014.nc
HEMCO: Opening /fsx/HEMCO/CEDS/v2018-08/2014/ALK4_pentanes-em-anthro_CMIP_CEDS_2014.nc
HEMCO: Opening /fsx/HEMCO/CEDS/v2018-08/2014/ALK4_hexanes-em-anthro_CMIP_CEDS_2014.nc
HEMCO: Opening /fsx/HEMCO/CEDS/v2018-08/2014/PRPE-em-anthro_CMIP_CEDS_2014.nc
HEMCO: Opening /fsx/HEMCO/CEDS/v2018-08/2014/BENZ-em-anthro_CMIP_CEDS_2014.nc
HEMCO: Opening /fsx/HEMCO/CEDS/v2018-08/2014/TOLU-em-anthro_CMIP_CEDS_2014.nc
HEMCO: Opening /fsx/HEMCO/CEDS/v2018-08/2014/XYLE-em-anthro_CMIP_CEDS_2014.nc
HEMCO: Opening /fsx/HEMCO/CEDS/v2018-08/2014/CH2O-em-anthro_CMIP_CEDS_2014.nc
HEMCO: Opening /fsx/HEMCO/CEDS/v2018-08/2014/ALD2-em-anthro_CMIP_CEDS_2014.nc
HEMCO: Opening /fsx/HEMCO/CEDS/v2018-08/2014/MEK-em-anthro_CMIP_CEDS_2014.nc
HEMCO: Opening /fsx/HEMCO/CEDS/v2018-08/2014/HCOOH-em-anthro_CMIP_CEDS_2014.nc
HEMCO: Opening /fsx/HEMCO/C2H6_2010/v2017-05/C2H6_global_anth_biof.201001.nc
HEMCO: Opening /fsx/HEMCO/NEI2011/v2017-02-MM/01/NEI11_0.1x0.1_201101_monmean.nc
HEMCO: Opening /fsx/HEMCO/NEI2011/v2017-02-MM/01/NEI11_0.1x0.1_201101_monmean_egu.nc
HEMCO: Opening /fsx/HEMCO/NEI2011/v2017-02-MM/01/NEI11_0.1x0.1_201101_monmean_egupk.nc
HEMCO: Opening /fsx/HEMCO/NEI2011/v2017-02-MM/01/NEI11_0.1x0.1_201101_monmean_oilgas.nc
HEMCO: Opening /fsx/HEMCO/NEI2011/v2017-02-MM/01/NEI11_0.1x0.1_201101_monmean_othpt.nc
HEMCO: Opening /fsx/HEMCO/NEI2011/v2017-02-MM/01/NEI11_0.1x0.1_201101_monmean_ptnonipm.nc
HEMCO: Opening /fsx/HEMCO/IODINE/v2017-09/CH3I_monthly_emissions_Ordonez_2012_COARDS.nc
HEMCO: Opening /fsx/HEMCO/IODINE/v2017-09/CH2I2_monthly_emissions_Ordonez_2012_COARDS.nc
HEMCO: Opening /fsx/HEMCO/IODINE/v2017-09/CH2ICl_monthly_emissions_Ordonez_2012_COARDS.nc
HEMCO: Opening /fsx/HEMCO/IODINE/v2017-09/CH2IBr_monthly_emissions_Ordonez_2012_COARDS.nc
HEMCO: Opening /fsx/HEMCO/CEDS/v2018-08/2014/CO-em-anthro_CMIP_CEDS_2014.nc
HEMCO: Opening /fsx/HEMCO/CEDS/v2018-08/2014/SO2-em-anthro_CMIP_CEDS_2014.nc
HEMCO: Opening /fsx/HEMCO/CEDS/v2018-08/2014/NH3-em-anthro_CMIP_CEDS_2014.nc
HEMCO: Opening /fsx/HEMCO/CEDS/v2018-08/2014/BC-em-anthro_CMIP_CEDS_2014.nc
HEMCO: Opening /fsx/HEMCO/CEDS/v2018-08/2014/OC-em-anthro_CMIP_CEDS_2014.nc
HEMCO: Opening /fsx/HEMCO/CEDS/v2018-08/2014/EOH-em-anthro_CMIP_CEDS_2014.nc
HEMCO: Opening /fsx/HEMCO/CEDS/v2018-08/2014/C2H6-em-anthro_CMIP_CEDS_2014.nc
HEMCO: Opening /fsx/HEMCO/CEDS/v2018-08/2014/C3H8-em-anthro_CMIP_CEDS_2014.nc
HEMCO: Opening /fsx/HEMCO/CEDS/v2018-08/2014/ALK4_butanes-em-anthro_CMIP_CEDS_2014.nc
HEMCO: Opening /fsx/HEMCO/CEDS/v2018-08/2014/ALK4_pentanes-em-anthro_CMIP_CEDS_2014.nc
HEMCO: Opening /fsx/HEMCO/CEDS/v2018-08/2014/ALK4_hexanes-em-anthro_CMIP_CEDS_2014.nc
HEMCO: Opening /fsx/HEMCO/CEDS/v2018-08/2014/PRPE-em-anthro_CMIP_CEDS_2014.nc
HEMCO: Opening /fsx/HEMCO/CEDS/v2018-08/2014/BENZ-em-anthro_CMIP_CEDS_2014.nc
HEMCO: Opening /fsx/HEMCO/CEDS/v2018-08/2014/TOLU-em-anthro_CMIP_CEDS_2014.nc
HEMCO: Opening /fsx/HEMCO/CEDS/v2018-08/2014/XYLE-em-anthro_CMIP_CEDS_2014.nc
HEMCO: Opening /fsx/HEMCO/CEDS/v2018-08/2014/CH2O-em-anthro_CMIP_CEDS_2014.nc
HEMCO: Opening /fsx/HEMCO/CEDS/v2018-08/2014/ALD2-em-anthro_CMIP_CEDS_2014.nc
HEMCO: Opening /fsx/HEMCO/CEDS/v2018-08/2014/MEK-em-anthro_CMIP_CEDS_2014.nc
HEMCO: Opening /fsx/HEMCO/CEDS/v2018-08/2014/HCOOH-em-anthro_CMIP_CEDS_2014.nc
HEMCO: Opening /fsx/HEMCO/CEDS/v2018-08/2014/NO-em-anthro_CMIP_CEDS_2014.nc
HEMCO: Opening /fsx/HEMCO/AEIC/v2015-01/AEIC.47L.gen.1x1.nc
HEMCO: Opening /fsx/HEMCO/ALD2/v2017-03/resp.geos.2x25.nc
HEMCO: Opening /fsx/HEMCO/DMS/v2015-07/DMS_lana.geos.1x1.nc
HEMCO: Opening /fsx/HEMCO/ALD2/v2017-03/ALD2_seawater.geos.2x25.nc
HEMCO: Opening /fsx/HEMCO/DUST_DEAD/v2014-07/dst_tvbds.geos.4x5.nc
HEMCO: Opening /fsx/HEMCO/DUST_DEAD/v2018-04/PM25FINE_ECLIPSE_2015.geos.2x25.nc
HEMCO: Opening /fsx/HEMCO/SOA/v2014-07/NVOC.geos.1x1.nc
HEMCO: Opening /fsx/HEMCO/GFED4/v2015-10/2016/GFED4_gen.025x025.201601.nc
HEMCO: Opening /fsx/HEMCO/UVALBEDO/v2015-03/uvalbedo.geos.2x25.nc
HEMCO: Opening /fsx/HEMCO/GMI/v2015-02/gmi.clim.ACET.geos5.2x25.nc
HEMCO: Opening /fsx/HEMCO/GMI/v2015-02/gmi.clim.ACTA.geos5.2x25.nc
HEMCO: Opening /fsx/HEMCO/GMI/v2015-02/gmi.clim.ALD2.geos5.2x25.nc
HEMCO: Opening /fsx/HEMCO/GMI/v2015-02/gmi.clim.ALK4.geos5.2x25.nc
HEMCO: Opening /fsx/HEMCO/GMI/v2015-02/gmi.clim.C2H6.geos5.2x25.nc
HEMCO: Opening /fsx/HEMCO/GMI/v2015-02/gmi.clim.C3H8.geos5.2x25.nc
HEMCO: Opening /fsx/HEMCO/GMI/v2015-02/gmi.clim.CCl4.geos5.2x25.nc
HEMCO: Opening /fsx/HEMCO/GMI/v2015-02/gmi.clim.CF2Cl2.geos5.2x25.nc
HEMCO: Opening /fsx/HEMCO/GMI/v2015-02/gmi.clim.CF2ClBr.geos5.2x25.nc
HEMCO: Opening /fsx/HEMCO/GMI/v2015-02/gmi.clim.CFC113.geos5.2x25.nc
HEMCO: Opening /fsx/HEMCO/GMI/v2015-02/gmi.clim.CFC114.geos5.2x25.nc
HEMCO: Opening /fsx/HEMCO/GMI/v2015-02/gmi.clim.CFC115.geos5.2x25.nc
HEMCO: Opening /fsx/HEMCO/GMI/v2015-02/gmi.clim.CFCl3.geos5.2x25.nc
HEMCO: Opening /fsx/HEMCO/GMI/v2015-02/gmi.clim.CH2O.geos5.2x25.nc
HEMCO: Opening /fsx/HEMCO/GMI/v2015-02/gmi.clim.CH3CCl3.geos5.2x25.nc
HEMCO: Opening /fsx/HEMCO/GMI/v2015-02/gmi.clim.CH3Cl.geos5.2x25.nc
HEMCO: Opening /fsx/HEMCO/GMI/v2015-02/gmi.clim.CH4.geos5.2x25.nc
HEMCO: Opening /fsx/HEMCO/GMI/v2015-02/gmi.clim.CO.geos5.2x25.nc
HEMCO: Opening /fsx/HEMCO/GMI/v2015-02/gmi.clim.Cl.geos5.2x25.nc
HEMCO: Opening /fsx/HEMCO/GMI/v2015-02/gmi.clim.Cl2.geos5.2x25.nc
HEMCO: Opening /fsx/HEMCO/GMI/v2015-02/gmi.clim.Cl2O2.geos5.2x25.nc
HEMCO: Opening /fsx/HEMCO/GMI/v2015-02/gmi.clim.ClO.geos5.2x25.nc
HEMCO: Opening /fsx/HEMCO/GMI/v2015-02/gmi.clim.EOH.geos5.2x25.nc
HEMCO: Opening /fsx/HEMCO/GMI/v2015-02/gmi.clim.GLYC.geos5.2x25.nc
HEMCO: Opening /fsx/HEMCO/GMI/v2015-02/gmi.clim.GLYX.geos5.2x25.nc
HEMCO: Opening /fsx/HEMCO/GMI/v2015-02/gmi.clim.H2402.geos5.2x25.nc
HEMCO: Opening /fsx/HEMCO/GMI/v2015-02/gmi.clim.H2O.geos5.2x25.nc
HEMCO: Opening /fsx/HEMCO/GMI/v2015-02/gmi.clim.H2O2.geos5.2x25.nc
HEMCO: Opening /fsx/HEMCO/GMI/v2015-02/gmi.clim.HAC.geos5.2x25.nc
HEMCO: Opening /fsx/HEMCO/GMI/v2015-02/gmi.clim.HCFC141b.geos5.2x25.nc
HEMCO: Opening /fsx/HEMCO/GMI/v2015-02/gmi.clim.HCFC142b.geos5.2x25.nc
HEMCO: Opening /fsx/HEMCO/GMI/v2015-02/gmi.clim.HCFC22.geos5.2x25.nc
HEMCO: Opening /fsx/HEMCO/GMI/v2015-02/gmi.clim.HCOOH.geos5.2x25.20170108.nc
HEMCO: Opening /fsx/HEMCO/GMI/v2015-02/gmi.clim.HCl.geos5.2x25.nc
HEMCO: Opening /fsx/HEMCO/GMI/v2015-02/gmi.clim.HNO2.geos5.2x25.nc
HEMCO: Opening /fsx/HEMCO/GMI/v2015-02/gmi.clim.HNO3.geos5.2x25.nc
HEMCO: Opening /fsx/HEMCO/GMI/v2015-02/gmi.clim.HNO4.geos5.2x25.nc
HEMCO: Opening /fsx/HEMCO/GMI/v2015-02/gmi.clim.HOCl.geos5.2x25.nc
HEMCO: Opening /fsx/HEMCO/GMI/v2015-02/gmi.clim.ISN1.geos5.2x25.nc
HEMCO: Opening /fsx/HEMCO/GMI/v2015-02/gmi.clim.ISOP.geos5.2x25.nc
HEMCO: Opening /fsx/HEMCO/GMI/v2015-02/gmi.clim.MACR.geos5.2x25.nc
HEMCO: Opening /fsx/HEMCO/GMI/v2015-02/gmi.clim.MAP.geos5.2x25.nc
HEMCO: Opening /fsx/HEMCO/GMI/v2015-02/gmi.clim.MEK.geos5.2x25.nc
HEMCO: Opening /fsx/HEMCO/GMI/v2015-02/gmi.clim.MGLY.geos5.2x25.nc
HEMCO: Opening /fsx/HEMCO/GMI/v2015-02/gmi.clim.MP.geos5.2x25.nc
HEMCO: Opening /fsx/HEMCO/GMI/v2015-02/gmi.clim.MVK.geos5.2x25.nc
HEMCO: Opening /fsx/HEMCO/GMI/v2015-02/gmi.clim.N2O.geos5.2x25.nc
HEMCO: Opening /fsx/HEMCO/GMI/v2015-02/gmi.clim.N2O5.geos5.2x25.nc
HEMCO: Opening /fsx/HEMCO/GMI/v2015-02/gmi.clim.NO.geos5.2x25.nc
HEMCO: Opening /fsx/HEMCO/GMI/v2015-02/gmi.clim.NO2.geos5.2x25.nc
HEMCO: Opening /fsx/HEMCO/GMI/v2015-02/gmi.clim.NO3.geos5.2x25.nc
HEMCO: Opening /fsx/HEMCO/GMI/v2015-02/gmi.clim.O3.geos5.2x25.nc
HEMCO: Opening /fsx/HEMCO/GMI/v2015-02/gmi.clim.OClO.geos5.2x25.nc
HEMCO: Opening /fsx/HEMCO/GMI/v2015-02/gmi.clim.PAN.geos5.2x25.nc
HEMCO: Opening /fsx/HEMCO/GMI/v2015-02/gmi.clim.NPMN.geos5.2x25.nc
HEMCO: Opening /fsx/HEMCO/GMI/v2015-02/gmi.clim.IPMN.geos5.2x25.nc
HEMCO: Opening /fsx/HEMCO/GMI/v2015-02/gmi.clim.PPN.geos5.2x25.nc
HEMCO: Opening /fsx/HEMCO/GMI/v2015-02/gmi.clim.PRPE.geos5.2x25.nc
HEMCO: Opening /fsx/HEMCO/GMI/v2015-02/gmi.clim.R4N2.geos5.2x25.nc
HEMCO: Opening /fsx/HEMCO/GMI/v2015-02/gmi.clim.RCHO.geos5.2x25.nc
HEMCO: Opening /fsx/HEMCO/GMI/v2015-02/gmi.clim.RIPA.geos5.2x25.nc
HEMCO: Opening /fsx/HEMCO/GMI/v2015-02/gmi.clim.RIPB.geos5.2x25.nc
HEMCO: Opening /fsx/HEMCO/GMI/v2015-02/gmi.clim.RIPD.geos5.2x25.nc
HEMCO: Opening /fsx/HEMCO/GMI/v2015-02/gmi.clim.OH.geos5.2x25.nc
HEMCO: Opening /fsx/HEMCO/NOAA_GMD/v2018-01/monthly.gridded.surface.methane.1979-2020.1x1.nc
HEMCO: Opening /fsx/HEMCO/GEIA/v2014-07/GEIA_monthscal.generic.1x1.nc
HEMCO: Opening /fsx/HEMCO/EMEP/v2015-03/EMEP.Seasonal.geos.1x1.nc
HEMCO: Opening /fsx/HEMCO/BROMINE/v2015-02/BromoCarb_Season.nc
HEMCO: Opening /fsx/HEMCO/EDGARv43/v2016-11/EDGAR_v43.Seasonal.1x1.nc
HEMCO: Opening /fsx/HEMCO/NEI2005/v2014-09/scaling/NEI99.dow.geos.1x1.nc
HEMCO: Opening /fsx/HEMCO/VOLCANO/v2015-02/2009/volc_so2_gen.1x1.47L.200901.nc
HEMCO: Opening /fsx/HEMCO/SOILNOX/v2014-07/soilNOx.fert_res.generic.05x05.nc
 vdinti: pbl height will be limited to bottom           25  model levels. top is
     431.250100000000       hpa
 =================================================
 W R F - G C   T I M E R S
    Domain           1 (Units: s)
 =================================================
  => Coupler Component                       0.052
   -- Physics & Parameterization             0.010
   -- Diagnostics Out                        0.000
  => GEOS-Chem Column                      154.740
  ===> Total Chemistry                     154.792
  => WRF                                    17.317
  ===> Total WRF-GC                        172.109
 max optd  1.9364301E+31
 max taucldi  1.6519475E-07
 max taucldw  4.1371313E-05
 Switching is not necessary as we are already
 in the right domain!
 GIGC_Chunk_Run: Running for in-PET grid #           1
 GIGC_Chunk_Run: Received new grid IM, JM, LM =          15           9
          49
 =================================================
 W R F - G C   T I M E R S
    Domain           1 (Units: s)
 =================================================
  => Coupler Component                       0.079
   -- Physics & Parameterization             0.020
   -- Diagnostics Out                        0.000
  => GEOS-Chem Column                      156.306
  ===> Total Chemistry                     156.386
  => WRF                                    36.177
  ===> Total WRF-GC                        192.563
 max optd  1.9364301E+31
 max taucldi  4.8433668E-07
 max taucldw  8.3964769E-05
 Switching is not necessary as we are already
 in the right domain!
 GIGC_Chunk_Run: Running for in-PET grid #           1
 GIGC_Chunk_Run: Received new grid IM, JM, LM =          15           9
          49
 =================================================
 W R F - G C   T I M E R S
    Domain           1 (Units: s)
 =================================================
  => Coupler Component                       0.113
   -- Physics & Parameterization             0.030
   -- Diagnostics Out                        0.000
  => GEOS-Chem Column                      157.644
  ===> Total Chemistry                     157.757
  => WRF                                    56.466
  ===> Total WRF-GC                        214.223
 max optd  1.9364301E+31
 max taucldi  9.5826226E-07
 max taucldw  1.2696646E-04
 Switching is not necessary as we are already
 in the right domain!
 GIGC_Chunk_Run: Running for in-PET grid #           1
 GIGC_Chunk_Run: Received new grid IM, JM, LM =          15           9
          49
 =================================================
 W R F - G C   T I M E R S
    Domain           1 (Units: s)
 =================================================
  => Coupler Component                       0.148
   -- Physics & Parameterization             0.040
   -- Diagnostics Out                        0.000
  => GEOS-Chem Column                      158.971
  ===> Total Chemistry                     159.119
  => WRF                                    75.220
  ===> Total WRF-GC                        234.339
 max optd  1.9364301E+31
 max taucldi  1.5712704E-06
 max taucldw  1.6855870E-04
 Switching is not necessary as we are already
 in the right domain!
 GIGC_Chunk_Run: Running for in-PET grid #           1
 GIGC_Chunk_Run: Received new grid IM, JM, LM =          15           9
          49
 =================================================
 W R F - G C   T I M E R S
    Domain           1 (Units: s)
 =================================================
  => Coupler Component                       0.192
   -- Physics & Parameterization             0.049
   -- Diagnostics Out                        0.000
  => GEOS-Chem Column                      160.176
  ===> Total Chemistry                     160.369
  => WRF                                    93.522
  ===> Total WRF-GC                        253.890
 max optd  1.9364301E+31
 max taucldi  2.2935658E-06
 max taucldw  2.0755292E-04
 Switching is not necessary as we are already
 in the right domain!
 GIGC_Chunk_Run: Running for in-PET grid #           1
 GIGC_Chunk_Run: Received new grid IM, JM, LM =          15           9
          49
 =================================================
 W R F - G C   T I M E R S
    Domain           1 (Units: s)
 =================================================
  => Coupler Component                       0.226
   -- Physics & Parameterization             0.059
   -- Diagnostics Out                        0.000
  => GEOS-Chem Column                      161.360
  ===> Total Chemistry                     161.587
  => WRF                                   111.809
  ===> Total WRF-GC                        273.396
 max optd  1.9364301E+31
 max taucldi  3.0705462E-06
 max taucldw  2.4171217E-04
 Switching is not necessary as we are already
 in the right domain!
 GIGC_Chunk_Run: Running for in-PET grid #           1
 GIGC_Chunk_Run: Received new grid IM, JM, LM =          15           9
          49
 =================================================
 W R F - G C   T I M E R S
    Domain           1 (Units: s)
 =================================================
  => Coupler Component                       0.266
   -- Physics & Parameterization             0.068
   -- Diagnostics Out                        0.000
  => GEOS-Chem Column                      162.544
  ===> Total Chemistry                     162.810
  => WRF                                   130.128
  ===> Total WRF-GC                        292.938
 max optd  1.9364301E+31
 max taucldi  3.8409844E-06
 max taucldw  2.6929591E-04
 Switching is not necessary as we are already
 in the right domain!
 GIGC_Chunk_Run: Running for in-PET grid #           1
 GIGC_Chunk_Run: Received new grid IM, JM, LM =          15           9
          49
 =================================================
 W R F - G C   T I M E R S
    Domain           1 (Units: s)
 =================================================
  => Coupler Component                       0.305
   -- Physics & Parameterization             0.078
   -- Diagnostics Out                        0.000
  => GEOS-Chem Column                      163.711
  ===> Total Chemistry                     164.016
  => WRF                                   148.365
  ===> Total WRF-GC                        312.382
 max optd  1.9364301E+31
 max taucldi  4.9080168E-06
 max taucldw  2.9239786E-04
 Switching is not necessary as we are already
 in the right domain!
 GIGC_Chunk_Run: Running for in-PET grid #           1
 GIGC_Chunk_Run: Received new grid IM, JM, LM =          15           9
          49
 =================================================
 W R F - G C   T I M E R S
    Domain           1 (Units: s)
 =================================================
  => Coupler Component                       0.340
   -- Physics & Parameterization             0.088
   -- Diagnostics Out                        0.000
  => GEOS-Chem Column                      164.876
  ===> Total Chemistry                     165.216
  => WRF                                   166.620
  ===> Total WRF-GC                        331.836
 max optd  1.9364301E+31
 max taucldi  3.5921548E-05
 max taucldw  3.2312956E-04
 Switching is not necessary as we are already
 in the right domain!
 GIGC_Chunk_Run: Running for in-PET grid #           1
 GIGC_Chunk_Run: Received new grid IM, JM, LM =          15           9
          49
 =================================================
 W R F - G C   T I M E R S
    Domain           1 (Units: s)
 =================================================
  => Coupler Component                       0.374
   -- Physics & Parameterization             0.098
   -- Diagnostics Out                        0.000
  => GEOS-Chem Column                      166.032
  ===> Total Chemistry                     166.406
  => WRF                                   184.946
  ===> Total WRF-GC                        351.352
 max optd  1.9364301E+31
 max taucldi  5.3881826E-03
 max taucldw  3.4788114E-04
 Switching is not necessary as we are already
 in the right domain!
 GIGC_Chunk_Run: Running for in-PET grid #           1
 GIGC_Chunk_Run: Received new grid IM, JM, LM =          15           9
          49
 =================================================
 W R F - G C   T I M E R S
    Domain           1 (Units: s)
 =================================================
  => Coupler Component                       0.407
   -- Physics & Parameterization             0.107
   -- Diagnostics Out                        0.000
  => GEOS-Chem Column                      167.181
  ===> Total Chemistry                     167.588
  => WRF                                   203.210
  ===> Total WRF-GC                        370.798
 max optd  1.9364301E+31
 max taucldi  1.8580379E-02
 max taucldw  3.6970599E-04
 Switching is not necessary as we are already
 in the right domain!
 GIGC_Chunk_Run: Running for in-PET grid #           1
 GIGC_Chunk_Run: Received new grid IM, JM, LM =          15           9
          49
 =================================================
 W R F - G C   T I M E R S
    Domain           1 (Units: s)
 =================================================
  => Coupler Component                       0.448
   -- Physics & Parameterization             0.117
   -- Diagnostics Out                        0.000
  => GEOS-Chem Column                      168.234
  ===> Total Chemistry                     168.681
  => WRF                                   221.354
  ===> Total WRF-GC                        390.036
 HOURLY EMISSIONS UPDATE TIME     3600.0       0.0
mediation_integrate: med_read_wrf_chem_emissions: Read emissions for time 2018-01-01_01:00:00
 max optd  1.9364301E+31
 max taucldi  3.4046263E-02
 max taucldw  3.9615377E-04
 Switching is not necessary as we are already
 in the right domain!
 GIGC_Chunk_Run: Running for in-PET grid #           1
 GIGC_Chunk_Run: Received new grid IM, JM, LM =          15           9
          49
 =================================================
 W R F - G C   T I M E R S
    Domain           1 (Units: s)
 =================================================
  => Coupler Component                       0.491
   -- Physics & Parameterization             0.127
   -- Diagnostics Out                        0.000
  => GEOS-Chem Column                      169.289
  ===> Total Chemistry                     169.780
  => WRF                                   239.665
  ===> Total WRF-GC                        409.445
 max optd  1.9364301E+31
 max taucldi  5.7489123E-02
 max taucldw  4.1620259E-04
 Switching is not necessary as we are already
 in the right domain!
 GIGC_Chunk_Run: Running for in-PET grid #           1
 GIGC_Chunk_Run: Received new grid IM, JM, LM =          15           9
          49
 =================================================
 W R F - G C   T I M E R S
    Domain           1 (Units: s)
 =================================================
  => Coupler Component                       0.533
   -- Physics & Parameterization             0.136
   -- Diagnostics Out                        0.000
  => GEOS-Chem Column                      170.344
  ===> Total Chemistry                     170.876
  => WRF                                   257.966
  ===> Total WRF-GC                        428.843
 max optd  1.9364301E+31
 max taucldi  7.5597510E-02
 max taucldw  4.2880961E-04
 Switching is not necessary as we are already
 in the right domain!
 GIGC_Chunk_Run: Running for in-PET grid #           1
 GIGC_Chunk_Run: Received new grid IM, JM, LM =          15           9
          49
 =================================================
 W R F - G C   T I M E R S
    Domain           1 (Units: s)
 =================================================
  => Coupler Component                       0.575
   -- Physics & Parameterization             0.146
   -- Diagnostics Out                        0.000
  => GEOS-Chem Column                      171.398
  ===> Total Chemistry                     171.972
  => WRF                                   276.161
  ===> Total WRF-GC                        448.134
 max optd  1.9364301E+31
 max taucldi  7.8699589E-02
 max taucldw  4.3518591E-04
 Switching is not necessary as we are already
 in the right domain!
 GIGC_Chunk_Run: Running for in-PET grid #           1
 GIGC_Chunk_Run: Received new grid IM, JM, LM =          15           9
          49
 =================================================
 W R F - G C   T I M E R S
    Domain           1 (Units: s)
 =================================================
  => Coupler Component                       0.620
   -- Physics & Parameterization             0.156
   -- Diagnostics Out                        0.000
  => GEOS-Chem Column                      172.451
  ===> Total Chemistry                     173.071
  => WRF                                   294.419
  ===> Total WRF-GC                        467.490
 max optd  1.9364301E+31
 max taucldi  8.8589646E-02
 max taucldw  4.3621048E-04
 Switching is not necessary as we are already
 in the right domain!
 GIGC_Chunk_Run: Running for in-PET grid #           1
 GIGC_Chunk_Run: Received new grid IM, JM, LM =          15           9
          49
 =================================================
 W R F - G C   T I M E R S
    Domain           1 (Units: s)
 =================================================
  => Coupler Component                       0.666
   -- Physics & Parameterization             0.166
   -- Diagnostics Out                        0.000
  => GEOS-Chem Column                      173.488
  ===> Total Chemistry                     174.154
  => WRF                                   312.644
  ===> Total WRF-GC                        486.798
 max optd  1.9364301E+31
 max taucldi  9.4451986E-02
 max taucldw  4.3643158E-04
 Switching is not necessary as we are already
 in the right domain!
 GIGC_Chunk_Run: Running for in-PET grid #           1
 GIGC_Chunk_Run: Received new grid IM, JM, LM =          15           9
          49
 =================================================
 W R F - G C   T I M E R S
    Domain           1 (Units: s)
 =================================================
  => Coupler Component                       0.709
   -- Physics & Parameterization             0.175
   -- Diagnostics Out                        0.000
  => GEOS-Chem Column                      174.553
  ===> Total Chemistry                     175.262
  => WRF                                   330.847
  ===> Total WRF-GC                        506.109
 max optd  1.9364301E+31
 max taucldi  9.0503544E-02
 max taucldw  4.3604025E-04
 Switching is not necessary as we are already
 in the right domain!
 GIGC_Chunk_Run: Running for in-PET grid #           1
 GIGC_Chunk_Run: Received new grid IM, JM, LM =          15           9
          49
 =================================================
 W R F - G C   T I M E R S
    Domain           1 (Units: s)
 =================================================
  => Coupler Component                       0.753
   -- Physics & Parameterization             0.185
   -- Diagnostics Out                        0.000
  => GEOS-Chem Column                      175.612
  ===> Total Chemistry                     176.364
  => WRF                                   349.082
  ===> Total WRF-GC                        525.446
 max optd  1.9364301E+31
 max taucldi  7.7895634E-02
 max taucldw  4.2862236E-04
 Switching is not necessary as we are already
 in the right domain!
 GIGC_Chunk_Run: Running for in-PET grid #           1
 GIGC_Chunk_Run: Received new grid IM, JM, LM =          15           9
          49
 =================================================
 W R F - G C   T I M E R S
    Domain           1 (Units: s)
 =================================================
  => Coupler Component                       0.805
   -- Physics & Parameterization             0.195
   -- Diagnostics Out                        0.000
  => GEOS-Chem Column                      176.641
  ===> Total Chemistry                     177.446
  => WRF                                   367.410
  ===> Total WRF-GC                        544.856
 max optd  1.9364301E+31
 max taucldi  8.3111919E-02
 max taucldw  4.2449147E-04
 Switching is not necessary as we are already
 in the right domain!
 GIGC_Chunk_Run: Running for in-PET grid #           1
 GIGC_Chunk_Run: Received new grid IM, JM, LM =          15           9
          49
 =================================================
 W R F - G C   T I M E R S
    Domain           1 (Units: s)
 =================================================
  => Coupler Component                       0.850
   -- Physics & Parameterization             0.204
   -- Diagnostics Out                        0.000
  => GEOS-Chem Column                      177.694
  ===> Total Chemistry                     178.545
  => WRF                                   385.529
  ===> Total WRF-GC                        564.073
 max optd  1.9364301E+31
 max taucldi  8.7794714E-02
 max taucldw  4.1511320E-04
 Switching is not necessary as we are already
 in the right domain!
 GIGC_Chunk_Run: Running for in-PET grid #           1
 GIGC_Chunk_Run: Received new grid IM, JM, LM =          15           9
          49
 =================================================
 W R F - G C   T I M E R S
    Domain           1 (Units: s)
 =================================================
  => Coupler Component                       0.893
   -- Physics & Parameterization             0.214
   -- Diagnostics Out                        0.000
  => GEOS-Chem Column                      178.774
  ===> Total Chemistry                     179.667
  => WRF                                   403.705
  ===> Total WRF-GC                        583.372
 max optd  1.9364301E+31
 max taucldi  9.4742306E-02
 max taucldw  4.0197125E-04
 Switching is not necessary as we are already
 in the right domain!
 GIGC_Chunk_Run: Running for in-PET grid #           1
 GIGC_Chunk_Run: Received new grid IM, JM, LM =          15           9
          49
 =================================================
 W R F - G C   T I M E R S
    Domain           1 (Units: s)
 =================================================
  => Coupler Component                       0.934
   -- Physics & Parameterization             0.223
   -- Diagnostics Out                        0.000
  => GEOS-Chem Column                      179.844
  ===> Total Chemistry                     180.778
  => WRF                                   421.962
  ===> Total WRF-GC                        602.740
 max optd  1.9364301E+31
 max taucldi  9.6439548E-02
 max taucldw  3.9041328E-04
 Switching is not necessary as we are already
 in the right domain!
 GIGC_Chunk_Run: Running for in-PET grid #           1
 GIGC_Chunk_Run: Received new grid IM, JM, LM =          15           9
          49
 =================================================
 W R F - G C   T I M E R S
    Domain           1 (Units: s)
 =================================================
  => Coupler Component                       0.977
   -- Physics & Parameterization             0.232
   -- Diagnostics Out                        0.000
  => GEOS-Chem Column                      180.896
  ===> Total Chemistry                     181.874
  => WRF                                   440.109
  ===> Total WRF-GC                        621.983
 HOURLY EMISSIONS UPDATE TIME     7200.0       0.0
mediation_integrate: med_read_wrf_chem_emissions: Read emissions for time 2018-01-01_02:00:00
 max optd  1.9364301E+31
 max taucldi  0.1023498    
 max taucldw  3.8545852E-04
 Switching is not necessary as we are already
 in the right domain!
 GIGC_Chunk_Run: Running for in-PET grid #           1
 GIGC_Chunk_Run: Received new grid IM, JM, LM =          15           9
          49
 =================================================
 W R F - G C   T I M E R S
    Domain           1 (Units: s)
 =================================================
  => Coupler Component                       1.024
   -- Physics & Parameterization             0.242
   -- Diagnostics Out                        0.000
  => GEOS-Chem Column                      181.938
  ===> Total Chemistry                     182.963
  => WRF                                   458.318
  ===> Total WRF-GC                        641.281
 max optd  1.9364301E+31
 max taucldi  0.1089045    
 max taucldw  3.7701451E-04
 Switching is not necessary as we are already
 in the right domain!
 GIGC_Chunk_Run: Running for in-PET grid #           1
 GIGC_Chunk_Run: Received new grid IM, JM, LM =          15           9
          49
 =================================================
 W R F - G C   T I M E R S
    Domain           1 (Units: s)
 =================================================
  => Coupler Component                       1.064
   -- Physics & Parameterization             0.252
   -- Diagnostics Out                        0.000
  => GEOS-Chem Column                      183.023
  ===> Total Chemistry                     184.087
  => WRF                                   476.540
  ===> Total WRF-GC                        660.627
 max optd  1.9364301E+31
 max taucldi  0.1094578    
 max taucldw  3.7442669E-04
 Switching is not necessary as we are already
 in the right domain!
 GIGC_Chunk_Run: Running for in-PET grid #           1
 GIGC_Chunk_Run: Received new grid IM, JM, LM =          15           9
          49
 =================================================
 W R F - G C   T I M E R S
    Domain           1 (Units: s)
 =================================================
  => Coupler Component                       1.104
   -- Physics & Parameterization             0.261
   -- Diagnostics Out                        0.000
  => GEOS-Chem Column                      184.083
  ===> Total Chemistry                     185.187
  => WRF                                   494.620
  ===> Total WRF-GC                        679.806
 max optd  1.9364301E+31
 max taucldi  0.1037298    
 max taucldw  3.6480610E-04
 Switching is not necessary as we are already
 in the right domain!
 GIGC_Chunk_Run: Running for in-PET grid #           1
 GIGC_Chunk_Run: Received new grid IM, JM, LM =          15           9
          49
 =================================================
 W R F - G C   T I M E R S
    Domain           1 (Units: s)
 =================================================
  => Coupler Component                       1.146
   -- Physics & Parameterization             0.271
   -- Diagnostics Out                        0.000
  => GEOS-Chem Column                      185.148
  ===> Total Chemistry                     186.294
  => WRF                                   512.724
  ===> Total WRF-GC                        699.018
 max optd  1.9364301E+31
 max taucldi  9.7352929E-02
 max taucldw  3.5985559E-04
 Switching is not necessary as we are already
 in the right domain!
 GIGC_Chunk_Run: Running for in-PET grid #           1
 GIGC_Chunk_Run: Received new grid IM, JM, LM =          15           9
          49
 =================================================
 W R F - G C   T I M E R S
    Domain           1 (Units: s)
 =================================================
  => Coupler Component                       1.191
   -- Physics & Parameterization             0.281
   -- Diagnostics Out                        0.000
  => GEOS-Chem Column                      186.202
  ===> Total Chemistry                     187.393
  => WRF                                   530.849
  ===> Total WRF-GC                        718.242
 max optd  1.9364301E+31
 max taucldi  8.8020362E-02
 max taucldw  3.4632557E-04
 Switching is not necessary as we are already
 in the right domain!
 GIGC_Chunk_Run: Running for in-PET grid #           1
 GIGC_Chunk_Run: Received new grid IM, JM, LM =          15           9
          49
 =================================================
 W R F - G C   T I M E R S
    Domain           1 (Units: s)
 =================================================
  => Coupler Component                       1.230
   -- Physics & Parameterization             0.290
   -- Diagnostics Out                        0.000
  => GEOS-Chem Column                      187.280
  ===> Total Chemistry                     188.509
  => WRF                                   548.976
  ===> Total WRF-GC                        737.486
 max optd  1.9364301E+31
 max taucldi  7.7674486E-02
 max taucldw  3.3184121E-04
 Switching is not necessary as we are already
 in the right domain!
 GIGC_Chunk_Run: Running for in-PET grid #           1
 GIGC_Chunk_Run: Received new grid IM, JM, LM =          15           9
          49
 =================================================
 W R F - G C   T I M E R S
    Domain           1 (Units: s)
 =================================================
  => Coupler Component                       1.275
   -- Physics & Parameterization             0.300
   -- Diagnostics Out                        0.000
  => GEOS-Chem Column                      188.331
  ===> Total Chemistry                     189.605
  => WRF                                   567.097
  ===> Total WRF-GC                        756.702
 max optd  1.9364301E+31
 max taucldi  7.7009350E-02
 max taucldw  3.1075309E-04
 Switching is not necessary as we are already
 in the right domain!
 GIGC_Chunk_Run: Running for in-PET grid #           1
 GIGC_Chunk_Run: Received new grid IM, JM, LM =          15           9
          49
 =================================================
 W R F - G C   T I M E R S
    Domain           1 (Units: s)
 =================================================
  => Coupler Component                       1.319
   -- Physics & Parameterization             0.309
   -- Diagnostics Out                        0.000
  => GEOS-Chem Column                      189.391
  ===> Total Chemistry                     190.710
  => WRF                                   585.175
  ===> Total WRF-GC                        775.885
 max optd  1.9364301E+31
 max taucldi  7.3601305E-02
 max taucldw  2.7859156E-04
 Switching is not necessary as we are already
 in the right domain!
 GIGC_Chunk_Run: Running for in-PET grid #           1
 GIGC_Chunk_Run: Received new grid IM, JM, LM =          15           9
          49
 =================================================
 W R F - G C   T I M E R S
    Domain           1 (Units: s)
 =================================================
  => Coupler Component                       1.372
   -- Physics & Parameterization             0.319
   -- Diagnostics Out                        0.000
  => GEOS-Chem Column                      190.431
  ===> Total Chemistry                     191.803
  => WRF                                   603.249
  ===> Total WRF-GC                        795.051
 max optd  1.9364301E+31
 max taucldi  6.2540226E-02
 max taucldw  2.4851164E-04
 Switching is not necessary as we are already
 in the right domain!
 GIGC_Chunk_Run: Running for in-PET grid #           1
 GIGC_Chunk_Run: Received new grid IM, JM, LM =          15           9
          49
 =================================================
 W R F - G C   T I M E R S
    Domain           1 (Units: s)
 =================================================
  => Coupler Component                       1.420
   -- Physics & Parameterization             0.328
   -- Diagnostics Out                        0.000
  => GEOS-Chem Column                      191.463
  ===> Total Chemistry                     192.883
  => WRF                                   621.402
  ===> Total WRF-GC                        814.285
 max optd  1.9364301E+31
 max taucldi  4.8653338E-02
 max taucldw  2.2297617E-04
 Switching is not necessary as we are already
 in the right domain!
 GIGC_Chunk_Run: Running for in-PET grid #           1
 GIGC_Chunk_Run: Received new grid IM, JM, LM =          15           9
          49
 =================================================
 W R F - G C   T I M E R S
    Domain           1 (Units: s)
 =================================================
  => Coupler Component                       1.463
   -- Physics & Parameterization             0.338
   -- Diagnostics Out                        0.000
  => GEOS-Chem Column                      192.515
  ===> Total Chemistry                     193.978
  => WRF                                   639.475
  ===> Total WRF-GC                        833.453
 max optd  1.9364301E+31
 max taucldi  3.3669841E-02
 max taucldw  2.0309306E-04
 Switching is not necessary as we are already
 in the right domain!
 GIGC_Chunk_Run: Running for in-PET grid #           1
 GIGC_Chunk_Run: Received new grid IM, JM, LM =          15           9
          49
 =================================================
 W R F - G C   T I M E R S
    Domain           1 (Units: s)
 =================================================
  => Coupler Component                       1.508
   -- Physics & Parameterization             0.347
   -- Diagnostics Out                        0.000
  => GEOS-Chem Column                      193.576
  ===> Total Chemistry                     195.083
  => WRF                                   657.551
  ===> Total WRF-GC                        852.634
 HOURLY EMISSIONS UPDATE TIME    10800.0       0.0
mediation_integrate: med_read_wrf_chem_emissions: Read emissions for time 2018-01-01_03:00:00
 max optd  1.9364301E+31
 max taucldi  1.8888555E-02
 max taucldw  1.8815360E-04
 Switching is not necessary as we are already
 in the right domain!
 GIGC_Chunk_Run: Running for in-PET grid #           1
 GIGC_Chunk_Run: Received new grid IM, JM, LM =          15           9
          49
 =================================================
 W R F - G C   T I M E R S
    Domain           1 (Units: s)
 =================================================
  => Coupler Component                       1.553
   -- Physics & Parameterization             0.357
   -- Diagnostics Out                        0.000
  => GEOS-Chem Column                      194.620
  ===> Total Chemistry                     196.173
  => WRF                                   675.667
  ===> Total WRF-GC                        871.840
 max optd  1.9364301E+31
 max taucldi  8.5430387E-03
 max taucldw  1.7605002E-04
 Switching is not necessary as we are already
 in the right domain!
 GIGC_Chunk_Run: Running for in-PET grid #           1
 GIGC_Chunk_Run: Received new grid IM, JM, LM =          15           9
          49
 =================================================
 W R F - G C   T I M E R S
    Domain           1 (Units: s)
 =================================================
  => Coupler Component                       1.596
   -- Physics & Parameterization             0.366
   -- Diagnostics Out                        0.000
  => GEOS-Chem Column                      195.680
  ===> Total Chemistry                     197.276
  => WRF                                   693.756
  ===> Total WRF-GC                        891.032
 max optd  1.9364301E+31
 max taucldi  2.6025574E-03
 max taucldw  1.7174437E-04
 Switching is not necessary as we are already
 in the right domain!
 GIGC_Chunk_Run: Running for in-PET grid #           1
 GIGC_Chunk_Run: Received new grid IM, JM, LM =          15           9
          49
 =================================================
 W R F - G C   T I M E R S
    Domain           1 (Units: s)
 =================================================
  => Coupler Component                       1.642
   -- Physics & Parameterization             0.376
   -- Diagnostics Out                        0.000
  => GEOS-Chem Column                      196.713
  ===> Total Chemistry                     198.354
  => WRF                                   711.848
  ===> Total WRF-GC                        910.202
 max optd  1.9364301E+31
 max taucldi  1.0257126E-03
 max taucldw  1.7211812E-04
 Switching is not necessary as we are already
 in the right domain!
 GIGC_Chunk_Run: Running for in-PET grid #           1
 GIGC_Chunk_Run: Received new grid IM, JM, LM =          15           9
          49
 =================================================
 W R F - G C   T I M E R S
    Domain           1 (Units: s)
 =================================================
  => Coupler Component                       1.685
   -- Physics & Parameterization             0.386
   -- Diagnostics Out                        0.000
  => GEOS-Chem Column                      197.771
  ===> Total Chemistry                     199.455
  => WRF                                   729.950
  ===> Total WRF-GC                        929.405
 max optd  1.9364301E+31
 max taucldi  1.4401303E-03
 max taucldw  1.7286341E-04
 Switching is not necessary as we are already
 in the right domain!
 GIGC_Chunk_Run: Running for in-PET grid #           1
 GIGC_Chunk_Run: Received new grid IM, JM, LM =          15           9
          49
 =================================================
 W R F - G C   T I M E R S
    Domain           1 (Units: s)
 =================================================
  => Coupler Component                       1.729
   -- Physics & Parameterization             0.395
   -- Diagnostics Out                        0.000
  => GEOS-Chem Column                      198.825
  ===> Total Chemistry                     200.554
  => WRF                                   748.006
  ===> Total WRF-GC                        948.559
 max optd  1.9364301E+31
 max taucldi  1.0985008E-02
 max taucldw  1.7392062E-04
 Switching is not necessary as we are already
 in the right domain!
 GIGC_Chunk_Run: Running for in-PET grid #           1
 GIGC_Chunk_Run: Received new grid IM, JM, LM =          15           9
          49
 =================================================
 W R F - G C   T I M E R S
    Domain           1 (Units: s)
 =================================================
  => Coupler Component                       1.772
   -- Physics & Parameterization             0.405
   -- Diagnostics Out                        0.000
  => GEOS-Chem Column                      199.888
  ===> Total Chemistry                     201.660
  => WRF                                   766.351
  ===> Total WRF-GC                        968.011
 max optd  1.9364301E+31
 max taucldi  2.3319449E-02
 max taucldw  1.7466012E-04
 Switching is not necessary as we are already
 in the right domain!
 GIGC_Chunk_Run: Running for in-PET grid #           1
 GIGC_Chunk_Run: Received new grid IM, JM, LM =          15           9
          49
 =================================================
 W R F - G C   T I M E R S
    Domain           1 (Units: s)
 =================================================
  => Coupler Component                       1.816
   -- Physics & Parameterization             0.414
   -- Diagnostics Out                        0.000
  => GEOS-Chem Column                      200.950
  ===> Total Chemistry                     202.766
  => WRF                                   784.509
  ===> Total WRF-GC                        987.274
 max optd  1.9364301E+31
 max taucldi  3.0420648E-02
 max taucldw  1.7513441E-04
 Switching is not necessary as we are already
 in the right domain!
 GIGC_Chunk_Run: Running for in-PET grid #           1
 GIGC_Chunk_Run: Received new grid IM, JM, LM =          15           9
          49
 =================================================
 W R F - G C   T I M E R S
    Domain           1 (Units: s)
 =================================================
  => Coupler Component                       1.862
   -- Physics & Parameterization             0.424
   -- Diagnostics Out                        0.000
  => GEOS-Chem Column                      201.988
  ===> Total Chemistry                     203.850
  => WRF                                   802.512
  ===> Total WRF-GC                       1006.362
 max optd  1.9364301E+31
 max taucldi  3.3082590E-02
 max taucldw  1.7568227E-04
 Switching is not necessary as we are already
 in the right domain!
 GIGC_Chunk_Run: Running for in-PET grid #           1
 GIGC_Chunk_Run: Received new grid IM, JM, LM =          15           9
          49
 =================================================
 W R F - G C   T I M E R S
    Domain           1 (Units: s)
 =================================================
  => Coupler Component                       1.906
   -- Physics & Parameterization             0.433
   -- Diagnostics Out                        0.000
  => GEOS-Chem Column                      203.048
  ===> Total Chemistry                     204.954
  => WRF                                   820.751
  ===> Total WRF-GC                       1025.705
 max optd  1.9364301E+31
 max taucldi  3.1318102E-02
 max taucldw  1.7583567E-04
 Switching is not necessary as we are already
 in the right domain!
 GIGC_Chunk_Run: Running for in-PET grid #           1
 GIGC_Chunk_Run: Received new grid IM, JM, LM =          15           9
          49
 =================================================
 W R F - G C   T I M E R S
    Domain           1 (Units: s)
 =================================================
  => Coupler Component                       1.952
   -- Physics & Parameterization             0.443
   -- Diagnostics Out                        0.000
  => GEOS-Chem Column                      204.100
  ===> Total Chemistry                     206.051
  => WRF                                   838.878
  ===> Total WRF-GC                       1044.930
 max optd  1.9364301E+31
 max taucldi  2.6828639E-02
 max taucldw  1.7096447E-04
 Switching is not necessary as we are already
 in the right domain!
 GIGC_Chunk_Run: Running for in-PET grid #           1
 GIGC_Chunk_Run: Received new grid IM, JM, LM =          15           9
          49
 =================================================
 W R F - G C   T I M E R S
    Domain           1 (Units: s)
 =================================================
  => Coupler Component                       1.997
   -- Physics & Parameterization             0.452
   -- Diagnostics Out                        0.000
  => GEOS-Chem Column                      205.167
  ===> Total Chemistry                     207.164
  => WRF                                   856.960
  ===> Total WRF-GC                       1064.124
 max optd  1.9364301E+31
 max taucldi  2.4948981E-02
 max taucldw  1.6687298E-04
 Switching is not necessary as we are already
 in the right domain!
 GIGC_Chunk_Run: Running for in-PET grid #           1
 GIGC_Chunk_Run: Received new grid IM, JM, LM =          15           9
          49
 =================================================
 W R F - G C   T I M E R S
    Domain           1 (Units: s)
 =================================================
  => Coupler Component                       2.044
   -- Physics & Parameterization             0.462
   -- Diagnostics Out                        0.000
  => GEOS-Chem Column                      206.210
  ===> Total Chemistry                     208.254
  => WRF                                   875.093
  ===> Total WRF-GC                       1083.347
 HOURLY EMISSIONS UPDATE TIME    14400.0       0.0
mediation_integrate: med_read_wrf_chem_emissions: Read emissions for time 2018-01-01_04:00:00
 max optd  1.9364301E+31
 max taucldi  2.2200517E-02
 max taucldw  1.6768984E-04
 Switching is not necessary as we are already
 in the right domain!
 GIGC_Chunk_Run: Running for in-PET grid #           1
 GIGC_Chunk_Run: Received new grid IM, JM, LM =          15           9
          49
 =================================================
 W R F - G C   T I M E R S
    Domain           1 (Units: s)
 =================================================
  => Coupler Component                       2.088
   -- Physics & Parameterization             0.471
   -- Diagnostics Out                        0.000
  => GEOS-Chem Column                      207.273
  ===> Total Chemistry                     209.361
  => WRF                                   893.224
  ===> Total WRF-GC                       1102.585
 max optd  1.9364301E+31
 max taucldi  1.9469729E-02
 max taucldw  1.6943735E-04
 Switching is not necessary as we are already
 in the right domain!
 GIGC_Chunk_Run: Running for in-PET grid #           1
 GIGC_Chunk_Run: Received new grid IM, JM, LM =          15           9
          49
 =================================================
 W R F - G C   T I M E R S
    Domain           1 (Units: s)
 =================================================
  => Coupler Component                       2.134
   -- Physics & Parameterization             0.481
   -- Diagnostics Out                        0.000
  => GEOS-Chem Column                      208.313
  ===> Total Chemistry                     210.446
  => WRF                                   911.346
  ===> Total WRF-GC                       1121.792
 max optd  1.9364301E+31
 max taucldi  1.6879849E-02
 max taucldw  1.7101163E-04
 Switching is not necessary as we are already
 in the right domain!
 GIGC_Chunk_Run: Running for in-PET grid #           1
 GIGC_Chunk_Run: Received new grid IM, JM, LM =          15           9
          49
 =================================================
 W R F - G C   T I M E R S
    Domain           1 (Units: s)
 =================================================
  => Coupler Component                       2.181
   -- Physics & Parameterization             0.491
   -- Diagnostics Out                        0.000
  => GEOS-Chem Column                      209.368
  ===> Total Chemistry                     211.549
  => WRF                                   929.572
  ===> Total WRF-GC                       1141.122
 max optd  1.9364301E+31
 max taucldi  1.4315207E-02
 max taucldw  1.7406102E-04
 Switching is not necessary as we are already
 in the right domain!
 GIGC_Chunk_Run: Running for in-PET grid #           1
 GIGC_Chunk_Run: Received new grid IM, JM, LM =          15           9
          49
 =================================================
 W R F - G C   T I M E R S
    Domain           1 (Units: s)
 =================================================
  => Coupler Component                       2.226
   -- Physics & Parameterization             0.500
   -- Diagnostics Out                        0.000
  => GEOS-Chem Column                      210.405
  ===> Total Chemistry                     212.631
  => WRF                                   947.678
  ===> Total WRF-GC                       1160.310
 max optd  1.9364301E+31
 max taucldi  1.2633602E-02
 max taucldw  1.7650930E-04
 Switching is not necessary as we are already
 in the right domain!
 GIGC_Chunk_Run: Running for in-PET grid #           1
 GIGC_Chunk_Run: Received new grid IM, JM, LM =          15           9
          49
 =================================================
 W R F - G C   T I M E R S
    Domain           1 (Units: s)
 =================================================
  => Coupler Component                       2.273
   -- Physics & Parameterization             0.510
   -- Diagnostics Out                        0.000
  => GEOS-Chem Column                      211.452
  ===> Total Chemistry                     213.725
  => WRF                                   965.853
  ===> Total WRF-GC                       1179.578
 max optd  1.9364301E+31
 max taucldi  1.5415521E-02
 max taucldw  1.7883757E-04
 Switching is not necessary as we are already
 in the right domain!
 GIGC_Chunk_Run: Running for in-PET grid #           1
 GIGC_Chunk_Run: Received new grid IM, JM, LM =          15           9
          49
 =================================================
 W R F - G C   T I M E R S
    Domain           1 (Units: s)
 =================================================
  => Coupler Component                       2.319
   -- Physics & Parameterization             0.520
   -- Diagnostics Out                        0.000
  => GEOS-Chem Column                      212.494
  ===> Total Chemistry                     214.813
  => WRF                                   983.982
  ===> Total WRF-GC                       1198.795
 max optd  1.9364301E+31
 max taucldi  1.7160786E-02
 max taucldw  1.8127689E-04
 Switching is not necessary as we are already
 in the right domain!
 GIGC_Chunk_Run: Running for in-PET grid #           1
 GIGC_Chunk_Run: Received new grid IM, JM, LM =          15           9
          49
 =================================================
 W R F - G C   T I M E R S
    Domain           1 (Units: s)
 =================================================
  => Coupler Component                       2.361
   -- Physics & Parameterization             0.529
   -- Diagnostics Out                        0.000
  => GEOS-Chem Column                      213.561
  ===> Total Chemistry                     215.922
  => WRF                                  1002.174
  ===> Total WRF-GC                       1218.096
 max optd  1.9364301E+31
 max taucldi  1.7940540E-02
 max taucldw  1.8425877E-04
 Switching is not necessary as we are already
 in the right domain!
 GIGC_Chunk_Run: Running for in-PET grid #           1
 GIGC_Chunk_Run: Received new grid IM, JM, LM =          15           9
          49
 =================================================
 W R F - G C   T I M E R S
    Domain           1 (Units: s)
 =================================================
  => Coupler Component                       2.407
   -- Physics & Parameterization             0.538
   -- Diagnostics Out                        0.000
  => GEOS-Chem Column                      214.611
  ===> Total Chemistry                     217.018
  => WRF                                  1020.263
  ===> Total WRF-GC                       1237.281
 max optd  1.9364301E+31
 max taucldi  1.9131264E-02
 max taucldw  1.8560143E-04
 Switching is not necessary as we are already
 in the right domain!
 GIGC_Chunk_Run: Running for in-PET grid #           1
 GIGC_Chunk_Run: Received new grid IM, JM, LM =          15           9
          49
 =================================================
 W R F - G C   T I M E R S
    Domain           1 (Units: s)
 =================================================
  => Coupler Component                       2.454
   -- Physics & Parameterization             0.547
   -- Diagnostics Out                        0.000
  => GEOS-Chem Column                      215.653
  ===> Total Chemistry                     218.107
  => WRF                                  1038.405
  ===> Total WRF-GC                       1256.512
 max optd  1.9364301E+31
 max taucldi  2.1477751E-02
 max taucldw  1.8748219E-04
 Switching is not necessary as we are already
 in the right domain!
 GIGC_Chunk_Run: Running for in-PET grid #           1
 GIGC_Chunk_Run: Received new grid IM, JM, LM =          15           9
          49
 =================================================
 W R F - G C   T I M E R S
    Domain           1 (Units: s)
 =================================================
  => Coupler Component                       2.497
   -- Physics & Parameterization             0.557
   -- Diagnostics Out                        0.000
  => GEOS-Chem Column                      216.671
  ===> Total Chemistry                     219.168
  => WRF                                  1056.510
  ===> Total WRF-GC                       1275.678
 max optd  1.9364301E+31
 max taucldi  2.5322421E-02
 max taucldw  1.9494396E-04
 Switching is not necessary as we are already
 in the right domain!
 GIGC_Chunk_Run: Running for in-PET grid #           1
 GIGC_Chunk_Run: Received new grid IM, JM, LM =          15           9
          49
 =================================================
 W R F - G C   T I M E R S
    Domain           1 (Units: s)
 =================================================
  => Coupler Component                       2.544
   -- Physics & Parameterization             0.567
   -- Diagnostics Out                        0.000
  => GEOS-Chem Column                      217.722
  ===> Total Chemistry                     220.266
  => WRF                                  1074.653
  ===> Total WRF-GC                       1294.919
 max optd  1.9364301E+31
 max taucldi  2.9622957E-02
 max taucldw  2.0053255E-04
 Switching is not necessary as we are already
 in the right domain!
 GIGC_Chunk_Run: Running for in-PET grid #           1
 GIGC_Chunk_Run: Received new grid IM, JM, LM =          15           9
          49
 =================================================
 W R F - G C   T I M E R S
    Domain           1 (Units: s)
 =================================================
  => Coupler Component                       2.590
   -- Physics & Parameterization             0.576
   -- Diagnostics Out                        0.000
  => GEOS-Chem Column                      218.765
  ===> Total Chemistry                     221.355
  => WRF                                  1092.710
  ===> Total WRF-GC                       1314.065
 HOURLY EMISSIONS UPDATE TIME    18000.0       0.0
mediation_integrate: med_read_wrf_chem_emissions: Read emissions for time 2018-01-01_05:00:00
 max optd  1.9364301E+31
 max taucldi  3.1826653E-02
 max taucldw  2.0413921E-04
 Switching is not necessary as we are already
 in the right domain!
 GIGC_Chunk_Run: Running for in-PET grid #           1
 GIGC_Chunk_Run: Received new grid IM, JM, LM =          15           9
          49
 =================================================
 W R F - G C   T I M E R S
    Domain           1 (Units: s)
 =================================================
  => Coupler Component                       2.637
   -- Physics & Parameterization             0.586
   -- Diagnostics Out                        0.000
  => GEOS-Chem Column                      219.796
  ===> Total Chemistry                     222.433
  => WRF                                  1110.877
  ===> Total WRF-GC                       1333.309
 max optd  1.9364301E+31
 max taucldi  3.1433705E-02
 max taucldw  2.0635824E-04
 Switching is not necessary as we are already
 in the right domain!
 GIGC_Chunk_Run: Running for in-PET grid #           1
 GIGC_Chunk_Run: Received new grid IM, JM, LM =          15           9
          49
 =================================================
 W R F - G C   T I M E R S
    Domain           1 (Units: s)
 =================================================
  => Coupler Component                       2.684
   -- Physics & Parameterization             0.596
   -- Diagnostics Out                        0.000
  => GEOS-Chem Column                      220.846
  ===> Total Chemistry                     223.530
  => WRF                                  1128.989
  ===> Total WRF-GC                       1352.519
 max optd  1.9364301E+31
 max taucldi  3.2801766E-02
 max taucldw  2.0758061E-04
 Switching is not necessary as we are already
 in the right domain!
 GIGC_Chunk_Run: Running for in-PET grid #           1
 GIGC_Chunk_Run: Received new grid IM, JM, LM =          15           9
          49
 =================================================
 W R F - G C   T I M E R S
    Domain           1 (Units: s)
 =================================================
  => Coupler Component                       2.731
   -- Physics & Parameterization             0.605
   -- Diagnostics Out                        0.000
  => GEOS-Chem Column                      221.893
  ===> Total Chemistry                     224.623
  => WRF                                  1147.087
  ===> Total WRF-GC                       1371.711
 max optd  1.9364301E+31
 max taucldi  3.5832390E-02
 max taucldw  2.0780216E-04
 Switching is not necessary as we are already
 in the right domain!
 GIGC_Chunk_Run: Running for in-PET grid #           1
 GIGC_Chunk_Run: Received new grid IM, JM, LM =          15           9
          49
 =================================================
 W R F - G C   T I M E R S
    Domain           1 (Units: s)
 =================================================
  => Coupler Component                       2.776
   -- Physics & Parameterization             0.614
   -- Diagnostics Out                        0.000
  => GEOS-Chem Column                      222.954
  ===> Total Chemistry                     225.729
  => WRF                                  1165.219
  ===> Total WRF-GC                       1390.948
 max optd  1.9364301E+31
 max taucldi  3.7066337E-02
 max taucldw  2.0719256E-04
 Switching is not necessary as we are already
 in the right domain!
 GIGC_Chunk_Run: Running for in-PET grid #           1
 GIGC_Chunk_Run: Received new grid IM, JM, LM =          15           9
          49
 =================================================
 W R F - G C   T I M E R S
    Domain           1 (Units: s)
 =================================================
  => Coupler Component                       2.824
   -- Physics & Parameterization             0.624
   -- Diagnostics Out                        0.000
  => GEOS-Chem Column                      224.005
  ===> Total Chemistry                     226.829
  => WRF                                  1183.387
  ===> Total WRF-GC                       1410.216
 max optd  1.9364301E+31
 max taucldi  3.9787304E-02
 max taucldw  2.0674200E-04
 Switching is not necessary as we are already
 in the right domain!
 GIGC_Chunk_Run: Running for in-PET grid #           1
 GIGC_Chunk_Run: Received new grid IM, JM, LM =          15           9
          49
 =================================================
 W R F - G C   T I M E R S
    Domain           1 (Units: s)
 =================================================
  => Coupler Component                       2.869
   -- Physics & Parameterization             0.633
   -- Diagnostics Out                        0.000
  => GEOS-Chem Column                      225.061
  ===> Total Chemistry                     227.931
  => WRF                                  1201.467
  ===> Total WRF-GC                       1429.398
 max optd  1.9364301E+31
 max taucldi  4.4046573E-02
 max taucldw  2.0691610E-04
 Switching is not necessary as we are already
 in the right domain!
 GIGC_Chunk_Run: Running for in-PET grid #           1
 GIGC_Chunk_Run: Received new grid IM, JM, LM =          15           9
          49
 =================================================
 W R F - G C   T I M E R S
    Domain           1 (Units: s)
 =================================================
  => Coupler Component                       2.911
   -- Physics & Parameterization             0.643
   -- Diagnostics Out                        0.000
  => GEOS-Chem Column                      226.114
  ===> Total Chemistry                     229.025
  => WRF                                  1219.649
  ===> Total WRF-GC                       1448.675
 max optd  1.9364301E+31
 max taucldi  4.6058498E-02
 max taucldw  2.0709513E-04
 Switching is not necessary as we are already
 in the right domain!
 GIGC_Chunk_Run: Running for in-PET grid #           1
 GIGC_Chunk_Run: Received new grid IM, JM, LM =          15           9
          49
 =================================================
 W R F - G C   T I M E R S
    Domain           1 (Units: s)
 =================================================
  => Coupler Component                       2.958
   -- Physics & Parameterization             0.652
   -- Diagnostics Out                        0.000
  => GEOS-Chem Column                      227.162
  ===> Total Chemistry                     230.120
  => WRF                                  1237.756
  ===> Total WRF-GC                       1467.876
 max optd  1.9364301E+31
 max taucldi  4.7197409E-02
 max taucldw  2.0674444E-04
 Switching is not necessary as we are already
 in the right domain!
 GIGC_Chunk_Run: Running for in-PET grid #           1
 GIGC_Chunk_Run: Received new grid IM, JM, LM =          15           9
          49
 =================================================
 W R F - G C   T I M E R S
    Domain           1 (Units: s)
 =================================================
  => Coupler Component                       3.003
   -- Physics & Parameterization             0.662
   -- Diagnostics Out                        0.000
  => GEOS-Chem Column                      228.201
  ===> Total Chemistry                     231.205
  => WRF                                  1255.920
  ===> Total WRF-GC                       1487.125
 max optd  1.9364301E+31
 max taucldi  4.6865050E-02
 max taucldw  2.0588898E-04
 Switching is not necessary as we are already
 in the right domain!
 GIGC_Chunk_Run: Running for in-PET grid #           1
 GIGC_Chunk_Run: Received new grid IM, JM, LM =          15           9
          49
 =================================================
 W R F - G C   T I M E R S
    Domain           1 (Units: s)
 =================================================
  => Coupler Component                       3.051
   -- Physics & Parameterization             0.671
   -- Diagnostics Out                        0.000
  => GEOS-Chem Column                      229.236
  ===> Total Chemistry                     232.287
  => WRF                                  1274.322
  ===> Total WRF-GC                       1506.609
 max optd  1.9364301E+31
 max taucldi  5.2152675E-02
 max taucldw  2.0480658E-04
 Switching is not necessary as we are already
 in the right domain!
 GIGC_Chunk_Run: Running for in-PET grid #           1
 GIGC_Chunk_Run: Received new grid IM, JM, LM =          15           9
          49
 =================================================
 W R F - G C   T I M E R S
    Domain           1 (Units: s)
 =================================================
  => Coupler Component                       3.100
   -- Physics & Parameterization             0.682
   -- Diagnostics Out                        0.000
  => GEOS-Chem Column                      230.270
  ===> Total Chemistry                     233.370
  => WRF                                  1292.460
  ===> Total WRF-GC                       1525.831
 max optd  1.9364301E+31
 max taucldi  5.7603613E-02
 max taucldw  2.0408875E-04
 Switching is not necessary as we are already
 in the right domain!
 GIGC_Chunk_Run: Running for in-PET grid #           1
 GIGC_Chunk_Run: Received new grid IM, JM, LM =          15           9
          49
 =================================================
 W R F - G C   T I M E R S
    Domain           1 (Units: s)
 =================================================
  => Coupler Component                       3.136
   -- Physics & Parameterization             0.691
   -- Diagnostics Out                        0.000
  => GEOS-Chem Column                      231.336
  ===> Total Chemistry                     234.473
  => WRF                                  1310.601
  ===> Total WRF-GC                       1545.074
 HOURLY EMISSIONS UPDATE TIME    21600.0       0.0
mediation_integrate: med_read_wrf_chem_emissions: Read emissions for time 2018-01-01_06:00:00
 max optd  1.9364301E+31
 max taucldi  0.1086853    
 max taucldw  2.0048047E-04
 Switching is not necessary as we are already
 in the right domain!
 GIGC_Chunk_Run: Running for in-PET grid #           1
 GIGC_Chunk_Run: Received new grid IM, JM, LM =          15           9
          49
 =================================================
 W R F - G C   T I M E R S
    Domain           1 (Units: s)
 =================================================
  => Coupler Component                       3.184
   -- Physics & Parameterization             0.701
   -- Diagnostics Out                        0.000
  => GEOS-Chem Column                      232.371
  ===> Total Chemistry                     235.555
  => WRF                                  1769.256
  ===> Total WRF-GC                       2004.811
 max optd  1.9364301E+31
 max taucldi  0.1412448    
 max taucldw  1.9359666E-04
 Switching is not necessary as we are already
 in the right domain!
 GIGC_Chunk_Run: Running for in-PET grid #           1
 GIGC_Chunk_Run: Received new grid IM, JM, LM =          15           9
          49
 =================================================
 W R F - G C   T I M E R S
    Domain           1 (Units: s)
 =================================================
  => Coupler Component                       3.230
   -- Physics & Parameterization             0.710
   -- Diagnostics Out                        0.000
  => GEOS-Chem Column                      233.427
  ===> Total Chemistry                     236.657
  => WRF                                  1787.412
  ===> Total WRF-GC                       2024.070
 max optd  1.9364301E+31
 max taucldi  0.1797021    
 max taucldw  1.8750297E-04
 Switching is not necessary as we are already
 in the right domain!
 GIGC_Chunk_Run: Running for in-PET grid #           1
 GIGC_Chunk_Run: Received new grid IM, JM, LM =          15           9
          49
 =================================================
 W R F - G C   T I M E R S
    Domain           1 (Units: s)
 =================================================
  => Coupler Component                       3.272
   -- Physics & Parameterization             0.719
   -- Diagnostics Out                        0.000
  => GEOS-Chem Column                      234.482
  ===> Total Chemistry                     237.754
  => WRF                                  1805.682
  ===> Total WRF-GC                       2043.436
 max optd  1.9364301E+31
 max taucldi  0.2089504    
 max taucldw  1.8600660E-04
 Switching is not necessary as we are already
 in the right domain!
 GIGC_Chunk_Run: Running for in-PET grid #           1
 GIGC_Chunk_Run: Received new grid IM, JM, LM =          15           9
          49
 =================================================
 W R F - G C   T I M E R S
    Domain           1 (Units: s)
 =================================================
  => Coupler Component                       3.320
[...]
  => GEOS-Chem Column                      282.472
  ===> Total Chemistry                     287.623
  => WRF                                  2623.056
  ===> Total WRF-GC                       2910.680
 HOURLY EMISSIONS UPDATE TIME    36000.0       0.0
mediation_integrate: med_read_wrf_chem_emissions: Read emissions for time 2018-01-01_10:00:00
 max optd  1.9364301E+31
 max taucldi  0.8401280    
 max taucldw  2.8898910E-04
 Switching is not necessary as we are already
 in the right domain!
 GIGC_Chunk_Run: Running for in-PET grid #           1
 GIGC_Chunk_Run: Received new grid IM, JM, LM =          15           9
          49
 =================================================
 W R F - G C   T I M E R S
    Domain           1 (Units: s)
 =================================================
  => Coupler Component                       5.188
   -- Physics & Parameterization             1.158
   -- Diagnostics Out                        0.000
  => GEOS-Chem Column                      283.561
  ===> Total Chemistry                     288.749
  => WRF                                  2641.254
  ===> Total WRF-GC                       2930.003
 max optd  1.9364301E+31
 max taucldi  0.8385112    
 max taucldw  2.8990887E-04
 Switching is not necessary as we are already
 in the right domain!
 GIGC_Chunk_Run: Running for in-PET grid #           1
 GIGC_Chunk_Run: Received new grid IM, JM, LM =          15           9
          49
 =================================================
 W R F - G C   T I M E R S
    Domain           1 (Units: s)
 =================================================
  => Coupler Component                       5.227
   -- Physics & Parameterization             1.167
   -- Diagnostics Out                        0.000
  => GEOS-Chem Column                      284.649
  ===> Total Chemistry                     289.875
  => WRF                                  2659.375
  ===> Total WRF-GC                       2949.250
 max optd  1.9364301E+31
 max taucldi  0.8350695    
 max taucldw  2.8993326E-04
 Switching is not necessary as we are already
 in the right domain!
 GIGC_Chunk_Run: Running for in-PET grid #           1
 GIGC_Chunk_Run: Received new grid IM, JM, LM =          15           9
          49
 =================================================
 W R F - G C   T I M E R S
    Domain           1 (Units: s)
 =================================================
  => Coupler Component                       5.263
   -- Physics & Parameterization             1.177
   -- Diagnostics Out                        0.000
  => GEOS-Chem Column                      285.741
  ===> Total Chemistry                     291.004
  => WRF                                  2677.484
  ===> Total WRF-GC                       2968.488
 max optd  1.9364301E+31
 max taucldi  0.8184231    
 max taucldw  2.8918826E-04
 Switching is not necessary as we are already
 in the right domain!
 GIGC_Chunk_Run: Running for in-PET grid #           1
 GIGC_Chunk_Run: Received new grid IM, JM, LM =          15           9
          49
 =================================================
 W R F - G C   T I M E R S
    Domain           1 (Units: s)
 =================================================
  => Coupler Component                       5.308
   -- Physics & Parameterization             1.187
   -- Diagnostics Out                        0.000
  => GEOS-Chem Column                      286.813
  ===> Total Chemistry                     292.122
  => WRF                                  2695.676
  ===> Total WRF-GC                       2987.798
 max optd  1.9364301E+31
 max taucldi  0.8162764    
 max taucldw  2.8576216E-04
 Switching is not necessary as we are already
 in the right domain!
 GIGC_Chunk_Run: Running for in-PET grid #           1
 GIGC_Chunk_Run: Received new grid IM, JM, LM =          15           9
          49
 =================================================
 W R F - G C   T I M E R S
    Domain           1 (Units: s)
 =================================================
  => Coupler Component                       5.348
   -- Physics & Parameterization             1.196
   -- Diagnostics Out                        0.000
  => GEOS-Chem Column                      287.891
  ===> Total Chemistry                     293.239
  => WRF                                  2713.839
  ===> Total WRF-GC                       3007.078
 max optd  1.9364301E+31
 max taucldi  0.8228766    
 max taucldw  2.8189327E-04
 Switching is not necessary as we are already
 in the right domain!
 GIGC_Chunk_Run: Running for in-PET grid #           1
 GIGC_Chunk_Run: Received new grid IM, JM, LM =          15           9
          49
 =================================================
 W R F - G C   T I M E R S
    Domain           1 (Units: s)
 =================================================
  => Coupler Component                       5.384
   -- Physics & Parameterization             1.206
   -- Diagnostics Out                        0.000
  => GEOS-Chem Column                      288.975
  ===> Total Chemistry                     294.359
  => WRF                                  2731.917
  ===> Total WRF-GC                       3026.276
 max optd  1.9364301E+31
 max taucldi  0.8258774    
 max taucldw  2.8596359E-04
 Switching is not necessary as we are already
 in the right domain!
 GIGC_Chunk_Run: Running for in-PET grid #           1
 GIGC_Chunk_Run: Received new grid IM, JM, LM =          15           9
          49
 =================================================
 W R F - G C   T I M E R S
    Domain           1 (Units: s)
 =================================================
  => Coupler Component                       5.425
   -- Physics & Parameterization             1.215
   -- Diagnostics Out                        0.000
  => GEOS-Chem Column                      290.069
  ===> Total Chemistry                     295.493
  => WRF                                  2750.076
  ===> Total WRF-GC                       3045.569
 max optd  1.9364301E+31
 max taucldi  0.8177571    
 max taucldw  2.8929466E-04
 Switching is not necessary as we are already
 in the right domain!
 GIGC_Chunk_Run: Running for in-PET grid #           1
 GIGC_Chunk_Run: Received new grid IM, JM, LM =          15           9
          49
 =================================================
 W R F - G C   T I M E R S
    Domain           1 (Units: s)
 =================================================
  => Coupler Component                       5.461
   -- Physics & Parameterization             1.224
   -- Diagnostics Out                        0.000
  => GEOS-Chem Column                      291.151
  ===> Total Chemistry                     296.613
  => WRF                                  2768.199
  ===> Total WRF-GC                       3064.811
 max optd  1.9364301E+31
 max taucldi  0.8049889    
 max taucldw  2.9215319E-04
 Switching is not necessary as we are already
 in the right domain!
 GIGC_Chunk_Run: Running for in-PET grid #           1
 GIGC_Chunk_Run: Received new grid IM, JM, LM =          15           9
          49
 =================================================
 W R F - G C   T I M E R S
    Domain           1 (Units: s)
 =================================================
  => Coupler Component                       5.499
   -- Physics & Parameterization             1.233
   -- Diagnostics Out                        0.000
  => GEOS-Chem Column                      292.238
  ===> Total Chemistry                     297.736
  => WRF                                  2786.301
  ===> Total WRF-GC                       3084.037
 max optd  1.9364301E+31
 max taucldi  0.8057257    
 max taucldw  2.9470003E-04
 Switching is not necessary as we are already
 in the right domain!
 GIGC_Chunk_Run: Running for in-PET grid #           1
 GIGC_Chunk_Run: Received new grid IM, JM, LM =          15           9
          49
 =================================================
 W R F - G C   T I M E R S
    Domain           1 (Units: s)
 =================================================
  => Coupler Component                       5.535
   -- Physics & Parameterization             1.243
   -- Diagnostics Out                        0.000
  => GEOS-Chem Column                      293.324
  ===> Total Chemistry                     298.858
  => WRF                                  2804.488
  ===> Total WRF-GC                       3103.346
 max optd  1.9364301E+31
 max taucldi  0.8063798    
 max taucldw  2.9674254E-04
 Switching is not necessary as we are already
 in the right domain!
 GIGC_Chunk_Run: Running for in-PET grid #           1
 GIGC_Chunk_Run: Received new grid IM, JM, LM =          15           9
          49
 =================================================
 W R F - G C   T I M E R S
    Domain           1 (Units: s)
 =================================================
  => Coupler Component                       5.573
   -- Physics & Parameterization             1.252
   -- Diagnostics Out                        0.000
  => GEOS-Chem Column                      294.403
  ===> Total Chemistry                     299.976
  => WRF                                  2822.609
  ===> Total WRF-GC                       3122.585
 max optd  1.9364301E+31
 max taucldi  0.7910784    
 max taucldw  2.9849532E-04
 Switching is not necessary as we are already
 in the right domain!
 GIGC_Chunk_Run: Running for in-PET grid #           1
 GIGC_Chunk_Run: Received new grid IM, JM, LM =          15           9
          49
 =================================================
 W R F - G C   T I M E R S
    Domain           1 (Units: s)
 =================================================
  => Coupler Component                       5.613
   -- Physics & Parameterization             1.262
   -- Diagnostics Out                        0.000
  => GEOS-Chem Column                      295.473
  ===> Total Chemistry                     301.086
  => WRF                                  2840.775
  ===> Total WRF-GC                       3141.861
 HOURLY EMISSIONS UPDATE TIME    39600.0       0.0
mediation_integrate: med_read_wrf_chem_emissions: Read emissions for time 2018-01-01_11:00:00
 max optd  1.9364301E+31
 max taucldi  0.7695943    
 max taucldw  2.9981998E-04
 Switching is not necessary as we are already
 in the right domain!
 GIGC_Chunk_Run: Running for in-PET grid #           1
 GIGC_Chunk_Run: Received new grid IM, JM, LM =          15           9
          49
 =================================================
 W R F - G C   T I M E R S
    Domain           1 (Units: s)
 =================================================
  => Coupler Component                       5.651
   -- Physics & Parameterization             1.271
   -- Diagnostics Out                        0.000
  => GEOS-Chem Column                      296.552
  ===> Total Chemistry                     302.202
  => WRF                                  2858.953
  ===> Total WRF-GC                       3161.156
 max optd  1.9364301E+31
 max taucldi  0.7860743    
 max taucldw  3.0066667E-04
 Switching is not necessary as we are already
 in the right domain!
 GIGC_Chunk_Run: Running for in-PET grid #           1
 GIGC_Chunk_Run: Received new grid IM, JM, LM =          15           9
          49
 =================================================
 W R F - G C   T I M E R S
    Domain           1 (Units: s)
 =================================================
  => Coupler Component                       5.688
   -- Physics & Parameterization             1.280
   -- Diagnostics Out                        0.000
  => GEOS-Chem Column                      297.632
  ===> Total Chemistry                     303.320
  => WRF                                  2877.061
  ===> Total WRF-GC                       3180.380
 max optd  1.9364301E+31
 max taucldi  0.7993556    
 max taucldw  3.0085829E-04
 Switching is not necessary as we are already
 in the right domain!
 GIGC_Chunk_Run: Running for in-PET grid #           1
 GIGC_Chunk_Run: Received new grid IM, JM, LM =          15           9
          49
 =================================================
 W R F - G C   T I M E R S
    Domain           1 (Units: s)
 =================================================
  => Coupler Component                       5.726
   -- Physics & Parameterization             1.290
   -- Diagnostics Out                        0.000
  => GEOS-Chem Column                      298.726
  ===> Total Chemistry                     304.452
  => WRF                                  2895.273
  ===> Total WRF-GC                       3199.725
 max optd  1.9364301E+31
 max taucldi  0.7899264    
 max taucldw  0.2669624    
 Switching is not necessary as we are already
 in the right domain!
 GIGC_Chunk_Run: Running for in-PET grid #           1
 GIGC_Chunk_Run: Received new grid IM, JM, LM =          15           9
          49
 =================================================
 W R F - G C   T I M E R S
    Domain           1 (Units: s)
 =================================================
  => Coupler Component                       5.765
   -- Physics & Parameterization             1.300
   -- Diagnostics Out                        0.000
  => GEOS-Chem Column                      299.814
  ===> Total Chemistry                     305.579
  => WRF                                  2913.511
  ===> Total WRF-GC                       3219.090
 max optd  1.9364301E+31
 max taucldi  0.7664513    
 max taucldw  0.5277446    
 Switching is not necessary as we are already
 in the right domain!
 GIGC_Chunk_Run: Running for in-PET grid #           1
 GIGC_Chunk_Run: Received new grid IM, JM, LM =          15           9
          49
 =================================================
 W R F - G C   T I M E R S
    Domain           1 (Units: s)
 =================================================
  => Coupler Component                       5.807
   -- Physics & Parameterization             1.310
   -- Diagnostics Out                        0.000
  => GEOS-Chem Column                      300.892
  ===> Total Chemistry                     306.698
  => WRF                                  2931.892
  ===> Total WRF-GC                       3238.591
 max optd  1.9364301E+31
 max taucldi  0.7719498    
 max taucldw  0.6432266    
 Switching is not necessary as we are already
 in the right domain!
 GIGC_Chunk_Run: Running for in-PET grid #           1
 GIGC_Chunk_Run: Received new grid IM, JM, LM =          15           9
          49
 =================================================
 W R F - G C   T I M E R S
    Domain           1 (Units: s)
 =================================================
  => Coupler Component                       5.842
   -- Physics & Parameterization             1.319
   -- Diagnostics Out                        0.000
  => GEOS-Chem Column                      301.975
  ===> Total Chemistry                     307.817
  => WRF                                  2950.271
  ===> Total WRF-GC                       3258.088
 max optd  1.9364301E+31
 max taucldi  0.7725552    
 max taucldw  0.7050576    
 Switching is not necessary as we are already
 in the right domain!
 GIGC_Chunk_Run: Running for in-PET grid #           1
 GIGC_Chunk_Run: Received new grid IM, JM, LM =          15           9
          49
 =================================================
 W R F - G C   T I M E R S
    Domain           1 (Units: s)
 =================================================
  => Coupler Component                       5.881
   -- Physics & Parameterization             1.329
   -- Diagnostics Out                        0.000
  => GEOS-Chem Column                      303.065
  ===> Total Chemistry                     308.947
  => WRF                                  2968.779
  ===> Total WRF-GC                       3277.726
 max optd  1.9364301E+31
 max taucldi  0.7746237    
 max taucldw  0.7111863    
 Switching is not necessary as we are already
 in the right domain!
 GIGC_Chunk_Run: Running for in-PET grid #           1
 GIGC_Chunk_Run: Received new grid IM, JM, LM =          15           9
          49
 =================================================
 W R F - G C   T I M E R S
    Domain           1 (Units: s)
 =================================================
  => Coupler Component                       5.918
   -- Physics & Parameterization             1.338
   -- Diagnostics Out                        0.000
  => GEOS-Chem Column                      304.154
  ===> Total Chemistry                     310.072
  => WRF                                  2987.312
  ===> Total WRF-GC                       3297.385
 max optd  1.9364301E+31
 max taucldi  0.7810910    
 max taucldw  0.8161732    
 Switching is not necessary as we are already
 in the right domain!
 GIGC_Chunk_Run: Running for in-PET grid #           1
 GIGC_Chunk_Run: Received new grid IM, JM, LM =          15           9
          49
 =================================================
 W R F - G C   T I M E R S
    Domain           1 (Units: s)
 =================================================
  => Coupler Component                       5.954
   -- Physics & Parameterization             1.348
   -- Diagnostics Out                        0.000
  => GEOS-Chem Column                      305.234
  ===> Total Chemistry                     311.188
  => WRF                                  3005.970
  ===> Total WRF-GC                       3317.158
 max optd  1.9364301E+31
 max taucldi  0.7798443    
 max taucldw  0.9182106    
 Switching is not necessary as we are already
 in the right domain!
 GIGC_Chunk_Run: Running for in-PET grid #           1
 GIGC_Chunk_Run: Received new grid IM, JM, LM =          15           9
          49
 =================================================
 W R F - G C   T I M E R S
    Domain           1 (Units: s)
 =================================================
  => Coupler Component                       5.993
   -- Physics & Parameterization             1.357
   -- Diagnostics Out                        0.000
  => GEOS-Chem Column                      306.324
  ===> Total Chemistry                     312.317
  => WRF                                  3024.850
  ===> Total WRF-GC                       3337.166
 max optd  1.9364301E+31
 max taucldi  0.7766055    
 max taucldw   1.063789    
 Switching is not necessary as we are already
 in the right domain!
 GIGC_Chunk_Run: Running for in-PET grid #           1
 GIGC_Chunk_Run: Received new grid IM, JM, LM =          15           9
          49
 =================================================
 W R F - G C   T I M E R S
    Domain           1 (Units: s)
 =================================================
  => Coupler Component                       6.028
   -- Physics & Parameterization             1.367
   -- Diagnostics Out                        0.000
  => GEOS-Chem Column                      307.389
  ===> Total Chemistry                     313.417
  => WRF                                  3043.620
  ===> Total WRF-GC                       3357.038
 max optd  1.9364301E+31
 max taucldi  0.7756721    
 max taucldw   1.279398    
 Switching is not necessary as we are already
 in the right domain!
 GIGC_Chunk_Run: Running for in-PET grid #           1
 GIGC_Chunk_Run: Received new grid IM, JM, LM =          15           9
          49
 =================================================
 W R F - G C   T I M E R S
    Domain           1 (Units: s)
 =================================================
  => Coupler Component                       6.060
   -- Physics & Parameterization             1.376
   -- Diagnostics Out                        0.000
  => GEOS-Chem Column                      308.457
  ===> Total Chemistry                     314.517
  => WRF                                  3062.359
  ===> Total WRF-GC                       3376.876
d01 2018-01-01_12:00:00 wrf: SUCCESS COMPLETE WRF
