taskid: 1622 hostname: ip-172-31-5-227
Quilting with   1 groups of   0 I/O tasks.
 Ntasks in X           64 , ntasks in Y           72
--- WARNING: traj_opt is zero, but num_traj is not zero; setting num_traj to zero.
--- NOTE: sst_update is 0, setting io_form_auxinput4 = 0 and auxinput4_interval = 0 for all domains
--- NOTE: grid_fdda is 0 for domain      1, setting gfdda interval and ending time to 0 for that domain.
--- NOTE: both grid_sfdda and pxlsm_soil_nudge are 0 for domain      1, setting sgfdda interval and ending time to 0 for that domain.
--- NOTE: obs_nudge_opt is 0 for domain      1, setting obs nudging interval and ending time to 0 for that domain.
--- NOTE: bl_pbl_physics /= 4, implies mfshconv must be 0, resetting
Need MYNN PBL for icloud_bl = 1, resetting to 0
*************************************
No physics suite selected.
Physics options will be used directly from the namelist.
*************************************
--- NOTE: RRTMG radiation is in use, setting:  levsiz=59, alevsiz=12, no_src_types=6
--- NOTE: num_soil_layers has been set to      4
WRF V3.9.1.1 MODEL
 *************************************
 Parent domain
 ids,ide,jds,jde            1         950           1         650
 ims,ime,jms,jme          324         352         220         242
 ips,ipe,jps,jpe          331         345         227         235
 *************************************
DYNAMICS OPTION: Eulerian Mass Coordinate
   alloc_space_field: domain            1 ,              203623800  bytes allocated
  med_initialdata_input: calling input_input
Max map factor in domain 1 =  1.40. Scale the dt in the model accordingly.
INPUT LandUse = "USGS"
 LANDUSE TYPE = "USGS" FOUND          33  CATEGORIES           2  SEASONS WATER CATEGORY =           16  SNOW CATEGORY =           24
INITIALIZE THREE Noah LSM RELATED TABLES
*****************************************************************
  __          _______  ______       _____  _____ _    _ _____
  \ \        / /  __ \|  ____|     / ____|/ ____| |  | |  __ \
   \ \  /\  / /| |__) | |__ ______| |  __| |    | |__| | |__) |
    \ \/  \/ / |  _  /|  __|______| | |_ | |    |  __  |  ___/
     \  /\  /  | | \ \| |         | |__| | |____| |  | | |
      \/  \/   |_|  \_\_|          \_____|\_____|_|  |_|_|
*****************************************************************
         WRF-GC MODEL, VERSION 1811.11 - WRF BINDINGS
 For errors, suggestions & feedback email linhaipeng@pku.edu.cn
*****************************************************************
    This is domain            1
 ### GIGC_Stateful_Mod: Root CPU, after READ_INPUT_FILE
  Linoz Data:  O3 climatology :                  z*=10, 12, ..., 58                             2.700E-08 1.083E-05
  Linoz Data:  Temperature climatology :         z*=10, 12, ..., 58                             1.859E+02 2.904E+02
  Linoz Data:  Column O3 above box climalology : z*=10, 12, ..., 58                             7.538E-02 3.770E+02
  Linoz Data:  P-L O3 climatology (mr/s):        z*=10, 12, ..., 58                            -1.590E-10 2.835E-11
  Linoz Data:  d(P-L)/dO3 (1/s) :                z*=10, 12, ..., 58                            -8.386E-04 7.556E-09
  Linoz Data:  d(P-L)/dT (mr/K) :                z*=10, 12, ..., 58                            -5.742E-12 4.615E-14
  Linoz Data:  d(P-L)/d(column O3) (mr/DU) :     z*=10, 12, ..., 58                            -1.921E-12 5.038E-10
 ### GIGC_Stateful_Mod: Root CPU, after LINOZ_READ
 %%%%%%%%% GIGC IN-PET GRID SWITCHING HACKS %%%%%%%%%
     (Not very) Proudly brought to you by hplin      
 Some debug information:
 ID:           1
 IM, JM, LM:          15           9          49  will be set as PAR
 Allocs: CMN T GC F
 RC at entry-point:           0
 %%%%%%%%%%%%%%%%%%%%%%%%%%%%%%%%%%%%%%%%%%%%%%%%%%%%
 No need to switch HcoState for ID           1
 Exit RC:            0
 %%%%%%%%%    FINISHED GIGC_Switch_Dims    %%%%%%%%%
 GIGC_Chunk_Init: Received new grid IM, JM, LM =          15           9
          49
     ### GIGC_INIT_SIMULATION: after Input_Opt% setups
     ### GIGC_INIT_SIMULATION: after GC_Init_All
     ### GIGC_INIT_SIMULATION: after GC_Init_Extra
     ### GIGC_INIT_SIMULATION: after INIT_FJX
 # GIGC_CHUNK_MOD: after SV save, ID =           1
 WRFGC chemics_init: Following information regarding Input_Opt% (for all doms)
 After domain           1
 HPC:  T
 LPRT:  F
 DoConv:  T
 DoDryDep:  T
 DoEmis:  T
 DoChem:  T
 DoTurb:  T
 DoWetDep:  T

 tropopause_init: DONE intialized domain            1

 mediation_integrate: med_read_wrf_chem_emissions: Open file wrfchemi_00z_d01
 HOURLY EMISSIONS UPDATE TIME        0.0       0.0
mediation_integrate: med_read_wrf_chem_emissions: Read emissions for time 2018-01-01_00:00:00
open_aux_u : error opening wrffirechemi_d01_2018-01-01_00:00:00 for reading. 100
open_aux_u : error opening wrfchemi_gocart_bg_d01 for reading. 100
d01 2018-01-01_00:00:00 Input data processed for aux input   8 for domain   1
open_aux_u : error opening wrfchemv_d01 for reading. 100
 Tile Strategy is not specified. Assuming 1D-Y
WRF TILE   1 IS    331 IE    345 JS    227 JE    235
WRF NUMBER OF TILES =   1
 max optd  2.6538018E+33
 max taucldi  0.0000000E+00
 max taucldw  0.0000000E+00
 =================================================
 W R F - G C   T I M E R S
    Domain           1 (Units: s)
 =================================================
  => Coupler Component                       0.032
   -- Physics & Parameterization             0.001
   -- Diagnostics Out                        0.000
  => GEOS-Chem Column                        0.000
  ===> Total Chemistry                       0.032
  => WRF                                     0.000
  ===> Total WRF-GC                          0.032
 max optd  2.6538018E+33
 max taucldi  1.0000006E-14
 max taucldw  1.0000006E-14
 %%%%%%%%% GIGC IN-PET GRID SWITCHING HACKS %%%%%%%%%
     (Not very) Proudly brought to you by hplin      
 Some debug information:
 ID:           1
 IM, JM, LM:          15           9          49  will be set as PAR
 Allocs: CMN T GC T
 RC at entry-point:           0
 %%%%%%%%%%%%%%%%%%%%%%%%%%%%%%%%%%%%%%%%%%%%%%%%%%%%
 No need to switch HcoState for ID           1
 Debug HcoState nSpc, NX, NY, NZ         163          15           9          49
 Exit RC:            0
 %%%%%%%%%    FINISHED GIGC_Switch_Dims    %%%%%%%%%
 GIGC_Chunk_Run: Running for in-PET grid #           1
 GIGC_Chunk_Run: Received new grid IM, JM, LM =          15           9
          49
HEMCO: Opening /fsx/HEMCO/BIOFUEL/v2014-07/biofuel.geos.4x5.nc
HEMCO: Opening /fsx/HEMCO/BROMINE/v2015-02/Bromocarb_Liang2010.nc
HEMCO: Opening /fsx/HEMCO/ACET/v2014-07/ACET_seawater.generic.1x1.nc
HEMCO: Opening /fsx/HEMCO/SOILNOX/v2014-07/DepReservoirDefault.nc
HEMCO: Opening /fsx/HEMCO/SOILNOX/v2014-07/soilNOx.landtype.generic.025x025.1L.nc
HEMCO: Opening /fsx/HEMCO/SOILNOX/v2014-07/soilNOx.climate.generic.05x05.nc
HEMCO: Opening /fsx/HEMCO/DUST_DEAD/v2014-07/dst_tibds.geos.4x5.nc
HEMCO: Opening /fsx/HEMCO/DUST_DEAD/v2014-07/GOCART_src_fn.geos.4x5.nc
HEMCO: Opening /fsx/HEMCO/MEGAN/v2018-05/MEGAN2.1_EF.geos.025x03125.nc
HEMCO: Opening /fsx/HEMCO/MEGAN/v2017-07/CLM4_PFT.geos.025x03125.nc
HEMCO: Opening /fsx/HEMCO/TIMEZONES/v2015-02/timezones_voronoi_1x1.nc
HEMCO: Opening /fsx/HEMCO/STRAT/v2015-01/Bry/GEOSCCM_Bry.200701.day.nc
HEMCO: Opening /fsx/HEMCO/STRAT/v2015-01/Bry/GEOSCCM_Bry.200701.night.nc
HEMCO: Opening /fsx/HEMCO/OMOC/v2018-01/OMOC.DJF.01x01.nc
HEMCO: Opening /fsx/HEMCO/OMOC/v2018-01/OMOC.MAM.01x01.nc
HEMCO: Opening /fsx/HEMCO/OMOC/v2018-01/OMOC.JJA.01x01.nc
HEMCO: Opening /fsx/HEMCO/OMOC/v2018-01/OMOC.SON.01x01.nc
HEMCO: Opening /fsx/HEMCO/AnnualScalar/v2014-07/AnnualScalar.geos.1x1.nc
HEMCO: Opening /fsx/HEMCO/EDGARv42/v2015-02/NO/EDGAR_hourly_NOxScal.nc
HEMCO: Opening /fsx/HEMCO/MASKS/v2018-09/EMEP_mask.geos.1x1.20151222.nc
HEMCO: Opening /fsx/HEMCO/MASKS/v2018-09/Canada_mask.geos.1x1.nc
HEMCO: Opening /fsx/HEMCO/MASKS/v2018-09/SE_Asia_mask.generic.1x1.nc
HEMCO: Opening /fsx/HEMCO/MASKS/v2018-09/MIX_Asia_mask.generic.025x025.nc
HEMCO: Opening /fsx/HEMCO/MASKS/v2018-09/CONUS_Mask.01x01.nc
HEMCO: Opening /fsx/HEMCO/MASKS/v2018-09/AF_LANDMASK.geos.05x0666.global.nc
HEMCO: Opening /fsx/HEMCO/MASKS/v2018-09/China_mask.generic.1x1.nc
HEMCO: Opening /fsx/HEMCO/MASKS/v2018-09/India_mask.generic.1x1.nc
HEMCO: Opening /fsx/HEMCO/AnnualScalar/v2014-07/AnnualScalar.geos.1x1.nc
HEMCO: Opening /fsx/HEMCO/NH3/v2014-07/NH3_geos.4x5.nc
HEMCO: Opening /fsx/HEMCO/NH3/v2018-04/NH3_Arctic_seabirds.nc
HEMCO: Opening /fsx/HEMCO/CEDS/v2018-08/2014/NO-em-anthro_CMIP_CEDS_2014.nc
HEMCO: Opening /fsx/HEMCO/CEDS/v2018-08/2014/CO-em-anthro_CMIP_CEDS_2014.nc
HEMCO: Opening /fsx/HEMCO/CEDS/v2018-08/2014/SO2-em-anthro_CMIP_CEDS_2014.nc
HEMCO: Opening /fsx/HEMCO/CEDS/v2018-08/2014/NH3-em-anthro_CMIP_CEDS_2014.nc
HEMCO: Opening /fsx/HEMCO/CEDS/v2018-08/2014/BC-em-anthro_CMIP_CEDS_2014.nc
HEMCO: Opening /fsx/HEMCO/CEDS/v2018-08/2014/OC-em-anthro_CMIP_CEDS_2014.nc
HEMCO: Opening /fsx/HEMCO/CEDS/v2018-08/2014/EOH-em-anthro_CMIP_CEDS_2014.nc
HEMCO: Opening /fsx/HEMCO/CEDS/v2018-08/2014/C2H6-em-anthro_CMIP_CEDS_2014.nc
HEMCO: Opening /fsx/HEMCO/CEDS/v2018-08/2014/C3H8-em-anthro_CMIP_CEDS_2014.nc
HEMCO: Opening /fsx/HEMCO/CEDS/v2018-08/2014/ALK4_butanes-em-anthro_CMIP_CEDS_2014.nc
HEMCO: Opening /fsx/HEMCO/CEDS/v2018-08/2014/ALK4_pentanes-em-anthro_CMIP_CEDS_2014.nc
HEMCO: Opening /fsx/HEMCO/CEDS/v2018-08/2014/ALK4_hexanes-em-anthro_CMIP_CEDS_2014.nc
HEMCO: Opening /fsx/HEMCO/CEDS/v2018-08/2014/PRPE-em-anthro_CMIP_CEDS_2014.nc
HEMCO: Opening /fsx/HEMCO/CEDS/v2018-08/2014/BENZ-em-anthro_CMIP_CEDS_2014.nc
HEMCO: Opening /fsx/HEMCO/CEDS/v2018-08/2014/TOLU-em-anthro_CMIP_CEDS_2014.nc
HEMCO: Opening /fsx/HEMCO/CEDS/v2018-08/2014/XYLE-em-anthro_CMIP_CEDS_2014.nc
HEMCO: Opening /fsx/HEMCO/CEDS/v2018-08/2014/CH2O-em-anthro_CMIP_CEDS_2014.nc
HEMCO: Opening /fsx/HEMCO/CEDS/v2018-08/2014/ALD2-em-anthro_CMIP_CEDS_2014.nc
HEMCO: Opening /fsx/HEMCO/CEDS/v2018-08/2014/MEK-em-anthro_CMIP_CEDS_2014.nc
HEMCO: Opening /fsx/HEMCO/CEDS/v2018-08/2014/HCOOH-em-anthro_CMIP_CEDS_2014.nc
HEMCO: Opening /fsx/HEMCO/C2H6_2010/v2017-05/C2H6_global_anth_biof.201001.nc
HEMCO: Opening /fsx/HEMCO/NEI2011/v2017-02-MM/01/NEI11_0.1x0.1_201101_monmean.nc
HEMCO: Opening /fsx/HEMCO/NEI2011/v2017-02-MM/01/NEI11_0.1x0.1_201101_monmean_egu.nc
HEMCO: Opening /fsx/HEMCO/NEI2011/v2017-02-MM/01/NEI11_0.1x0.1_201101_monmean_egupk.nc
HEMCO: Opening /fsx/HEMCO/NEI2011/v2017-02-MM/01/NEI11_0.1x0.1_201101_monmean_oilgas.nc
HEMCO: Opening /fsx/HEMCO/NEI2011/v2017-02-MM/01/NEI11_0.1x0.1_201101_monmean_othpt.nc
HEMCO: Opening /fsx/HEMCO/NEI2011/v2017-02-MM/01/NEI11_0.1x0.1_201101_monmean_ptnonipm.nc
HEMCO: Opening /fsx/HEMCO/IODINE/v2017-09/CH3I_monthly_emissions_Ordonez_2012_COARDS.nc
HEMCO: Opening /fsx/HEMCO/IODINE/v2017-09/CH2I2_monthly_emissions_Ordonez_2012_COARDS.nc
HEMCO: Opening /fsx/HEMCO/IODINE/v2017-09/CH2ICl_monthly_emissions_Ordonez_2012_COARDS.nc
HEMCO: Opening /fsx/HEMCO/IODINE/v2017-09/CH2IBr_monthly_emissions_Ordonez_2012_COARDS.nc
HEMCO: Opening /fsx/HEMCO/CEDS/v2018-08/2014/CO-em-anthro_CMIP_CEDS_2014.nc
HEMCO: Opening /fsx/HEMCO/CEDS/v2018-08/2014/SO2-em-anthro_CMIP_CEDS_2014.nc
HEMCO: Opening /fsx/HEMCO/CEDS/v2018-08/2014/NH3-em-anthro_CMIP_CEDS_2014.nc
HEMCO: Opening /fsx/HEMCO/CEDS/v2018-08/2014/BC-em-anthro_CMIP_CEDS_2014.nc
HEMCO: Opening /fsx/HEMCO/CEDS/v2018-08/2014/OC-em-anthro_CMIP_CEDS_2014.nc
HEMCO: Opening /fsx/HEMCO/CEDS/v2018-08/2014/EOH-em-anthro_CMIP_CEDS_2014.nc
HEMCO: Opening /fsx/HEMCO/CEDS/v2018-08/2014/C2H6-em-anthro_CMIP_CEDS_2014.nc
HEMCO: Opening /fsx/HEMCO/CEDS/v2018-08/2014/C3H8-em-anthro_CMIP_CEDS_2014.nc
HEMCO: Opening /fsx/HEMCO/CEDS/v2018-08/2014/ALK4_butanes-em-anthro_CMIP_CEDS_2014.nc
HEMCO: Opening /fsx/HEMCO/CEDS/v2018-08/2014/ALK4_pentanes-em-anthro_CMIP_CEDS_2014.nc
HEMCO: Opening /fsx/HEMCO/CEDS/v2018-08/2014/ALK4_hexanes-em-anthro_CMIP_CEDS_2014.nc
HEMCO: Opening /fsx/HEMCO/CEDS/v2018-08/2014/PRPE-em-anthro_CMIP_CEDS_2014.nc
HEMCO: Opening /fsx/HEMCO/CEDS/v2018-08/2014/BENZ-em-anthro_CMIP_CEDS_2014.nc
HEMCO: Opening /fsx/HEMCO/CEDS/v2018-08/2014/TOLU-em-anthro_CMIP_CEDS_2014.nc
HEMCO: Opening /fsx/HEMCO/CEDS/v2018-08/2014/XYLE-em-anthro_CMIP_CEDS_2014.nc
HEMCO: Opening /fsx/HEMCO/CEDS/v2018-08/2014/CH2O-em-anthro_CMIP_CEDS_2014.nc
HEMCO: Opening /fsx/HEMCO/CEDS/v2018-08/2014/ALD2-em-anthro_CMIP_CEDS_2014.nc
HEMCO: Opening /fsx/HEMCO/CEDS/v2018-08/2014/MEK-em-anthro_CMIP_CEDS_2014.nc
HEMCO: Opening /fsx/HEMCO/CEDS/v2018-08/2014/HCOOH-em-anthro_CMIP_CEDS_2014.nc
HEMCO: Opening /fsx/HEMCO/CEDS/v2018-08/2014/NO-em-anthro_CMIP_CEDS_2014.nc
HEMCO: Opening /fsx/HEMCO/AEIC/v2015-01/AEIC.47L.gen.1x1.nc
HEMCO: Opening /fsx/HEMCO/ALD2/v2017-03/resp.geos.2x25.nc
HEMCO: Opening /fsx/HEMCO/DMS/v2015-07/DMS_lana.geos.1x1.nc
HEMCO: Opening /fsx/HEMCO/ALD2/v2017-03/ALD2_seawater.geos.2x25.nc
HEMCO: Opening /fsx/HEMCO/DUST_DEAD/v2014-07/dst_tvbds.geos.4x5.nc
HEMCO: Opening /fsx/HEMCO/DUST_DEAD/v2018-04/PM25FINE_ECLIPSE_2015.geos.2x25.nc
HEMCO: Opening /fsx/HEMCO/SOA/v2014-07/NVOC.geos.1x1.nc
HEMCO: Opening /fsx/HEMCO/GFED4/v2015-10/2016/GFED4_gen.025x025.201601.nc
HEMCO: Opening /fsx/HEMCO/UVALBEDO/v2015-03/uvalbedo.geos.2x25.nc
HEMCO: Opening /fsx/HEMCO/GMI/v2015-02/gmi.clim.ACET.geos5.2x25.nc
HEMCO: Opening /fsx/HEMCO/GMI/v2015-02/gmi.clim.ACTA.geos5.2x25.nc
HEMCO: Opening /fsx/HEMCO/GMI/v2015-02/gmi.clim.ALD2.geos5.2x25.nc
HEMCO: Opening /fsx/HEMCO/GMI/v2015-02/gmi.clim.ALK4.geos5.2x25.nc
HEMCO: Opening /fsx/HEMCO/GMI/v2015-02/gmi.clim.C2H6.geos5.2x25.nc
HEMCO: Opening /fsx/HEMCO/GMI/v2015-02/gmi.clim.C3H8.geos5.2x25.nc
HEMCO: Opening /fsx/HEMCO/GMI/v2015-02/gmi.clim.CCl4.geos5.2x25.nc
HEMCO: Opening /fsx/HEMCO/GMI/v2015-02/gmi.clim.CF2Cl2.geos5.2x25.nc
HEMCO: Opening /fsx/HEMCO/GMI/v2015-02/gmi.clim.CF2ClBr.geos5.2x25.nc
HEMCO: Opening /fsx/HEMCO/GMI/v2015-02/gmi.clim.CFC113.geos5.2x25.nc
HEMCO: Opening /fsx/HEMCO/GMI/v2015-02/gmi.clim.CFC114.geos5.2x25.nc
HEMCO: Opening /fsx/HEMCO/GMI/v2015-02/gmi.clim.CFC115.geos5.2x25.nc
HEMCO: Opening /fsx/HEMCO/GMI/v2015-02/gmi.clim.CFCl3.geos5.2x25.nc
HEMCO: Opening /fsx/HEMCO/GMI/v2015-02/gmi.clim.CH2O.geos5.2x25.nc
HEMCO: Opening /fsx/HEMCO/GMI/v2015-02/gmi.clim.CH3CCl3.geos5.2x25.nc
HEMCO: Opening /fsx/HEMCO/GMI/v2015-02/gmi.clim.CH3Cl.geos5.2x25.nc
HEMCO: Opening /fsx/HEMCO/GMI/v2015-02/gmi.clim.CH4.geos5.2x25.nc
HEMCO: Opening /fsx/HEMCO/GMI/v2015-02/gmi.clim.CO.geos5.2x25.nc
HEMCO: Opening /fsx/HEMCO/GMI/v2015-02/gmi.clim.Cl.geos5.2x25.nc
HEMCO: Opening /fsx/HEMCO/GMI/v2015-02/gmi.clim.Cl2.geos5.2x25.nc
HEMCO: Opening /fsx/HEMCO/GMI/v2015-02/gmi.clim.Cl2O2.geos5.2x25.nc
HEMCO: Opening /fsx/HEMCO/GMI/v2015-02/gmi.clim.ClO.geos5.2x25.nc
HEMCO: Opening /fsx/HEMCO/GMI/v2015-02/gmi.clim.EOH.geos5.2x25.nc
HEMCO: Opening /fsx/HEMCO/GMI/v2015-02/gmi.clim.GLYC.geos5.2x25.nc
HEMCO: Opening /fsx/HEMCO/GMI/v2015-02/gmi.clim.GLYX.geos5.2x25.nc
HEMCO: Opening /fsx/HEMCO/GMI/v2015-02/gmi.clim.H2402.geos5.2x25.nc
HEMCO: Opening /fsx/HEMCO/GMI/v2015-02/gmi.clim.H2O.geos5.2x25.nc
HEMCO: Opening /fsx/HEMCO/GMI/v2015-02/gmi.clim.H2O2.geos5.2x25.nc
HEMCO: Opening /fsx/HEMCO/GMI/v2015-02/gmi.clim.HAC.geos5.2x25.nc
HEMCO: Opening /fsx/HEMCO/GMI/v2015-02/gmi.clim.HCFC141b.geos5.2x25.nc
HEMCO: Opening /fsx/HEMCO/GMI/v2015-02/gmi.clim.HCFC142b.geos5.2x25.nc
HEMCO: Opening /fsx/HEMCO/GMI/v2015-02/gmi.clim.HCFC22.geos5.2x25.nc
HEMCO: Opening /fsx/HEMCO/GMI/v2015-02/gmi.clim.HCOOH.geos5.2x25.20170108.nc
HEMCO: Opening /fsx/HEMCO/GMI/v2015-02/gmi.clim.HCl.geos5.2x25.nc
HEMCO: Opening /fsx/HEMCO/GMI/v2015-02/gmi.clim.HNO2.geos5.2x25.nc
HEMCO: Opening /fsx/HEMCO/GMI/v2015-02/gmi.clim.HNO3.geos5.2x25.nc
HEMCO: Opening /fsx/HEMCO/GMI/v2015-02/gmi.clim.HNO4.geos5.2x25.nc
HEMCO: Opening /fsx/HEMCO/GMI/v2015-02/gmi.clim.HOCl.geos5.2x25.nc
HEMCO: Opening /fsx/HEMCO/GMI/v2015-02/gmi.clim.ISN1.geos5.2x25.nc
HEMCO: Opening /fsx/HEMCO/GMI/v2015-02/gmi.clim.ISOP.geos5.2x25.nc
HEMCO: Opening /fsx/HEMCO/GMI/v2015-02/gmi.clim.MACR.geos5.2x25.nc
HEMCO: Opening /fsx/HEMCO/GMI/v2015-02/gmi.clim.MAP.geos5.2x25.nc
HEMCO: Opening /fsx/HEMCO/GMI/v2015-02/gmi.clim.MEK.geos5.2x25.nc
HEMCO: Opening /fsx/HEMCO/GMI/v2015-02/gmi.clim.MGLY.geos5.2x25.nc
HEMCO: Opening /fsx/HEMCO/GMI/v2015-02/gmi.clim.MP.geos5.2x25.nc
HEMCO: Opening /fsx/HEMCO/GMI/v2015-02/gmi.clim.MVK.geos5.2x25.nc
HEMCO: Opening /fsx/HEMCO/GMI/v2015-02/gmi.clim.N2O.geos5.2x25.nc
HEMCO: Opening /fsx/HEMCO/GMI/v2015-02/gmi.clim.N2O5.geos5.2x25.nc
HEMCO: Opening /fsx/HEMCO/GMI/v2015-02/gmi.clim.NO.geos5.2x25.nc
HEMCO: Opening /fsx/HEMCO/GMI/v2015-02/gmi.clim.NO2.geos5.2x25.nc
HEMCO: Opening /fsx/HEMCO/GMI/v2015-02/gmi.clim.NO3.geos5.2x25.nc
HEMCO: Opening /fsx/HEMCO/GMI/v2015-02/gmi.clim.O3.geos5.2x25.nc
HEMCO: Opening /fsx/HEMCO/GMI/v2015-02/gmi.clim.OClO.geos5.2x25.nc
HEMCO: Opening /fsx/HEMCO/GMI/v2015-02/gmi.clim.PAN.geos5.2x25.nc
HEMCO: Opening /fsx/HEMCO/GMI/v2015-02/gmi.clim.NPMN.geos5.2x25.nc
HEMCO: Opening /fsx/HEMCO/GMI/v2015-02/gmi.clim.IPMN.geos5.2x25.nc
HEMCO: Opening /fsx/HEMCO/GMI/v2015-02/gmi.clim.PPN.geos5.2x25.nc
HEMCO: Opening /fsx/HEMCO/GMI/v2015-02/gmi.clim.PRPE.geos5.2x25.nc
HEMCO: Opening /fsx/HEMCO/GMI/v2015-02/gmi.clim.R4N2.geos5.2x25.nc
HEMCO: Opening /fsx/HEMCO/GMI/v2015-02/gmi.clim.RCHO.geos5.2x25.nc
HEMCO: Opening /fsx/HEMCO/GMI/v2015-02/gmi.clim.RIPA.geos5.2x25.nc
HEMCO: Opening /fsx/HEMCO/GMI/v2015-02/gmi.clim.RIPB.geos5.2x25.nc
HEMCO: Opening /fsx/HEMCO/GMI/v2015-02/gmi.clim.RIPD.geos5.2x25.nc
HEMCO: Opening /fsx/HEMCO/GMI/v2015-02/gmi.clim.OH.geos5.2x25.nc
HEMCO: Opening /fsx/HEMCO/NOAA_GMD/v2018-01/monthly.gridded.surface.methane.1979-2020.1x1.nc
HEMCO: Opening /fsx/HEMCO/GEIA/v2014-07/GEIA_monthscal.generic.1x1.nc
HEMCO: Opening /fsx/HEMCO/EMEP/v2015-03/EMEP.Seasonal.geos.1x1.nc
HEMCO: Opening /fsx/HEMCO/BROMINE/v2015-02/BromoCarb_Season.nc
HEMCO: Opening /fsx/HEMCO/EDGARv43/v2016-11/EDGAR_v43.Seasonal.1x1.nc
HEMCO: Opening /fsx/HEMCO/NEI2005/v2014-09/scaling/NEI99.dow.geos.1x1.nc
HEMCO: Opening /fsx/HEMCO/VOLCANO/v2015-02/2009/volc_so2_gen.1x1.47L.200901.nc
HEMCO: Opening /fsx/HEMCO/SOILNOX/v2014-07/soilNOx.fert_res.generic.05x05.nc
 vdinti: pbl height will be limited to bottom           25  model levels. top is
     431.250100000000       hpa
 =================================================
 W R F - G C   T I M E R S
    Domain           1 (Units: s)
 =================================================
  => Coupler Component                       0.060
   -- Physics & Parameterization             0.010
   -- Diagnostics Out                        0.000
  => GEOS-Chem Column                      139.456
  ===> Total Chemistry                     139.516
  => WRF                                    17.294
  ===> Total WRF-GC                        156.810
 max optd  1.9364301E+31
 max taucldi  3.9098997E-02
 max taucldw  9.9627496E-06
 Switching is not necessary as we are already
 in the right domain!
 GIGC_Chunk_Run: Running for in-PET grid #           1
 GIGC_Chunk_Run: Received new grid IM, JM, LM =          15           9
          49
 =================================================
 W R F - G C   T I M E R S
    Domain           1 (Units: s)
 =================================================
  => Coupler Component                       0.094
   -- Physics & Parameterization             0.019
   -- Diagnostics Out                        0.000
  => GEOS-Chem Column                      140.730
  ===> Total Chemistry                     140.823
  => WRF                                    51.436
  ===> Total WRF-GC                        192.259
 max optd  1.9364301E+31
 max taucldi  6.7815468E-02
 max taucldw  1.9686962E-05
 Switching is not necessary as we are already
 in the right domain!
 GIGC_Chunk_Run: Running for in-PET grid #           1
 GIGC_Chunk_Run: Received new grid IM, JM, LM =          15           9
          49
 =================================================
 W R F - G C   T I M E R S
    Domain           1 (Units: s)
 =================================================
  => Coupler Component                       0.127
   -- Physics & Parameterization             0.028
   -- Diagnostics Out                        0.000
  => GEOS-Chem Column                      141.915
  ===> Total Chemistry                     142.041
  => WRF                                    72.019
  ===> Total WRF-GC                        214.061
 max optd  1.9364301E+31
 max taucldi  9.5444344E-02
 max taucldw  2.9648287E-05
 Switching is not necessary as we are already
 in the right domain!
 GIGC_Chunk_Run: Running for in-PET grid #           1
 GIGC_Chunk_Run: Received new grid IM, JM, LM =          15           9
          49
 =================================================
 W R F - G C   T I M E R S
    Domain           1 (Units: s)
 =================================================
  => Coupler Component                       0.155
   -- Physics & Parameterization             0.037
   -- Diagnostics Out                        0.000
  => GEOS-Chem Column                      143.088
  ===> Total Chemistry                     143.243
  => WRF                                    90.910
  ===> Total WRF-GC                        234.153
 max optd  1.9364301E+31
 max taucldi  0.1875455    
 max taucldw  3.8032726E-05
 Switching is not necessary as we are already
 in the right domain!
 GIGC_Chunk_Run: Running for in-PET grid #           1
 GIGC_Chunk_Run: Received new grid IM, JM, LM =          15           9
          49
 =================================================
 W R F - G C   T I M E R S
    Domain           1 (Units: s)
 =================================================
  => Coupler Component                       0.183
   -- Physics & Parameterization             0.047
   -- Diagnostics Out                        0.000
  => GEOS-Chem Column                      144.278
  ===> Total Chemistry                     144.461
  => WRF                                   109.373
  ===> Total WRF-GC                        253.834
 max optd  1.9364301E+31
 max taucldi  0.3552759    
 max taucldw  4.3887994E-05
 Switching is not necessary as we are already
 in the right domain!
 GIGC_Chunk_Run: Running for in-PET grid #           1
 GIGC_Chunk_Run: Received new grid IM, JM, LM =          15           9
          49
 =================================================
 W R F - G C   T I M E R S
    Domain           1 (Units: s)
 =================================================
  => Coupler Component                       0.217
   -- Physics & Parameterization             0.056
   -- Diagnostics Out                        0.000
  => GEOS-Chem Column                      145.446
  ===> Total Chemistry                     145.663
  => WRF                                   127.700
  ===> Total WRF-GC                        273.363
 max optd  1.9364301E+31
 max taucldi  0.4860450    
 max taucldw  4.6660854E-05
 Switching is not necessary as we are already
 in the right domain!
 GIGC_Chunk_Run: Running for in-PET grid #           1
 GIGC_Chunk_Run: Received new grid IM, JM, LM =          15           9
          49
 =================================================
 W R F - G C   T I M E R S
    Domain           1 (Units: s)
 =================================================
  => Coupler Component                       0.247
   -- Physics & Parameterization             0.065
   -- Diagnostics Out                        0.000
  => GEOS-Chem Column                      146.596
  ===> Total Chemistry                     146.843
  => WRF                                   146.040
  ===> Total WRF-GC                        292.882
 max optd  1.9364301E+31
 max taucldi  0.5929753    
 max taucldw  4.7443365E-05
 Switching is not necessary as we are already
 in the right domain!
 GIGC_Chunk_Run: Running for in-PET grid #           1
 GIGC_Chunk_Run: Received new grid IM, JM, LM =          15           9
          49
 =================================================
 W R F - G C   T I M E R S
    Domain           1 (Units: s)
 =================================================
  => Coupler Component                       0.279
   -- Physics & Parameterization             0.074
   -- Diagnostics Out                        0.000
  => GEOS-Chem Column                      147.676
  ===> Total Chemistry                     147.955
  => WRF                                   164.326
  ===> Total WRF-GC                        312.281
 max optd  1.9364301E+31
 max taucldi  0.6086724    
 max taucldw  5.1610903E-05
 Switching is not necessary as we are already
 in the right domain!
 GIGC_Chunk_Run: Running for in-PET grid #           1
 GIGC_Chunk_Run: Received new grid IM, JM, LM =          15           9
          49
 =================================================
 W R F - G C   T I M E R S
    Domain           1 (Units: s)
 =================================================
  => Coupler Component                       0.313
   -- Physics & Parameterization             0.084
   -- Diagnostics Out                        0.000
  => GEOS-Chem Column                      148.740
  ===> Total Chemistry                     149.053
  => WRF                                   182.681
  ===> Total WRF-GC                        331.733
 max optd  1.9364301E+31
 max taucldi  0.5888200    
 max taucldw  5.6023935E-05
 Switching is not necessary as we are already
 in the right domain!
 GIGC_Chunk_Run: Running for in-PET grid #           1
 GIGC_Chunk_Run: Received new grid IM, JM, LM =          15           9
          49
 =================================================
 W R F - G C   T I M E R S
    Domain           1 (Units: s)
 =================================================
  => Coupler Component                       0.349
   -- Physics & Parameterization             0.093
   -- Diagnostics Out                        0.000
  => GEOS-Chem Column                      149.798
  ===> Total Chemistry                     150.147
  => WRF                                   201.111
  ===> Total WRF-GC                        351.258
 max optd  1.9364301E+31
 max taucldi  0.5494096    
 max taucldw  5.9189937E-05
 Switching is not necessary as we are already
 in the right domain!
 GIGC_Chunk_Run: Running for in-PET grid #           1
 GIGC_Chunk_Run: Received new grid IM, JM, LM =          15           9
          49
 =================================================
 W R F - G C   T I M E R S
    Domain           1 (Units: s)
 =================================================
  => Coupler Component                       0.384
   -- Physics & Parameterization             0.102
   -- Diagnostics Out                        0.000
  => GEOS-Chem Column                      150.856
  ===> Total Chemistry                     151.239
  => WRF                                   219.462
  ===> Total WRF-GC                        370.701
 max optd  1.9364301E+31
 max taucldi  0.5164505    
 max taucldw  6.1133673E-05
 Switching is not necessary as we are already
 in the right domain!
 GIGC_Chunk_Run: Running for in-PET grid #           1
 GIGC_Chunk_Run: Received new grid IM, JM, LM =          15           9
          49
 =================================================
 W R F - G C   T I M E R S
    Domain           1 (Units: s)
 =================================================
  => Coupler Component                       0.418
   -- Physics & Parameterization             0.111
   -- Diagnostics Out                        0.000
  => GEOS-Chem Column                      151.929
  ===> Total Chemistry                     152.347
  => WRF                                   237.702
  ===> Total WRF-GC                        390.048
 HOURLY EMISSIONS UPDATE TIME     3600.0       0.0
mediation_integrate: med_read_wrf_chem_emissions: Read emissions for time 2018-01-01_01:00:00
 max optd  1.9364301E+31
 max taucldi  0.5011353    
 max taucldw  6.2173574E-05
 Switching is not necessary as we are already
 in the right domain!
 GIGC_Chunk_Run: Running for in-PET grid #           1
 GIGC_Chunk_Run: Received new grid IM, JM, LM =          15           9
          49
 =================================================
 W R F - G C   T I M E R S
    Domain           1 (Units: s)
 =================================================
  => Coupler Component                       0.451
   -- Physics & Parameterization             0.121
   -- Diagnostics Out                        0.000
  => GEOS-Chem Column                      152.985
  ===> Total Chemistry                     153.436
  => WRF                                   256.002
  ===> Total WRF-GC                        409.438
 max optd  1.9364301E+31
 max taucldi  0.4651099    
 max taucldw  6.2324019E-05
 Switching is not necessary as we are already
 in the right domain!
 GIGC_Chunk_Run: Running for in-PET grid #           1
 GIGC_Chunk_Run: Received new grid IM, JM, LM =          15           9
          49
 =================================================
 W R F - G C   T I M E R S
    Domain           1 (Units: s)
 =================================================
  => Coupler Component                       0.485
   -- Physics & Parameterization             0.130
   -- Diagnostics Out                        0.000
  => GEOS-Chem Column                      154.052
  ===> Total Chemistry                     154.536
  => WRF                                   274.314
  ===> Total WRF-GC                        428.850
 max optd  1.9364301E+31
 max taucldi  0.4303089    
 max taucldw  6.4605141E-05
 Switching is not necessary as we are already
 in the right domain!
 GIGC_Chunk_Run: Running for in-PET grid #           1
 GIGC_Chunk_Run: Received new grid IM, JM, LM =          15           9
          49
 =================================================
 W R F - G C   T I M E R S
    Domain           1 (Units: s)
 =================================================
  => Coupler Component                       0.524
   -- Physics & Parameterization             0.139
   -- Diagnostics Out                        0.000
  => GEOS-Chem Column                      155.097
  ===> Total Chemistry                     155.621
  => WRF                                   292.491
  ===> Total WRF-GC                        448.112
 max optd  1.9364301E+31
 max taucldi  0.3991130    
 max taucldw  6.7153400E-05
 Switching is not necessary as we are already
 in the right domain!
 GIGC_Chunk_Run: Running for in-PET grid #           1
 GIGC_Chunk_Run: Received new grid IM, JM, LM =          15           9
          49
 =================================================
 W R F - G C   T I M E R S
    Domain           1 (Units: s)
 =================================================
  => Coupler Component                       0.557
   -- Physics & Parameterization             0.148
   -- Diagnostics Out                        0.000
  => GEOS-Chem Column                      156.147
  ===> Total Chemistry                     156.703
  => WRF                                   310.773
  ===> Total WRF-GC                        467.477
 max optd  1.9364301E+31
 max taucldi  0.3760079    
 max taucldw  6.9115631E-05
 Switching is not necessary as we are already
 in the right domain!
 GIGC_Chunk_Run: Running for in-PET grid #           1
 GIGC_Chunk_Run: Received new grid IM, JM, LM =          15           9
          49
 =================================================
 W R F - G C   T I M E R S
    Domain           1 (Units: s)
 =================================================
  => Coupler Component                       0.592
   -- Physics & Parameterization             0.158
   -- Diagnostics Out                        0.000
  => GEOS-Chem Column                      157.179
  ===> Total Chemistry                     157.772
  => WRF                                   329.014
  ===> Total WRF-GC                        486.786
 max optd  1.9364301E+31
 max taucldi  0.3480406    
 max taucldw  7.0323986E-05
 Switching is not necessary as we are already
 in the right domain!
 GIGC_Chunk_Run: Running for in-PET grid #           1
 GIGC_Chunk_Run: Received new grid IM, JM, LM =          15           9
          49
 =================================================
 W R F - G C   T I M E R S
    Domain           1 (Units: s)
 =================================================
  => Coupler Component                       0.628
   -- Physics & Parameterization             0.167
   -- Diagnostics Out                        0.000
  => GEOS-Chem Column                      158.229
  ===> Total Chemistry                     158.856
  => WRF                                   347.235
  ===> Total WRF-GC                        506.091
 max optd  1.9364301E+31
 max taucldi  0.3668131    
 max taucldw  7.0754679E-05
 Switching is not necessary as we are already
 in the right domain!
 GIGC_Chunk_Run: Running for in-PET grid #           1
 GIGC_Chunk_Run: Received new grid IM, JM, LM =          15           9
          49
 =================================================
 W R F - G C   T I M E R S
    Domain           1 (Units: s)
 =================================================
  => Coupler Component                       0.663
   -- Physics & Parameterization             0.176
   -- Diagnostics Out                        0.000
  => GEOS-Chem Column                      159.271
  ===> Total Chemistry                     159.934
  => WRF                                   365.512
  ===> Total WRF-GC                        525.446
 max optd  1.9364301E+31
 max taucldi  0.3816678    
 max taucldw  7.0087204E-05
 Switching is not necessary as we are already
 in the right domain!
 GIGC_Chunk_Run: Running for in-PET grid #           1
 GIGC_Chunk_Run: Received new grid IM, JM, LM =          15           9
          49
 =================================================
 W R F - G C   T I M E R S
    Domain           1 (Units: s)
 =================================================
  => Coupler Component                       0.694
   -- Physics & Parameterization             0.185
   -- Diagnostics Out                        0.000
  => GEOS-Chem Column                      160.337
  ===> Total Chemistry                     161.031
  => WRF                                   383.860
  ===> Total WRF-GC                        544.891
 max optd  1.9364301E+31
 max taucldi  0.4469882    
 max taucldw  6.8086629E-05
 Switching is not necessary as we are already
 in the right domain!
 GIGC_Chunk_Run: Running for in-PET grid #           1
 GIGC_Chunk_Run: Received new grid IM, JM, LM =          15           9
          49
 =================================================
 W R F - G C   T I M E R S
    Domain           1 (Units: s)
 =================================================
  => Coupler Component                       0.726
   -- Physics & Parameterization             0.194
   -- Diagnostics Out                        0.000
  => GEOS-Chem Column                      161.405
  ===> Total Chemistry                     162.131
  => WRF                                   401.964
  ===> Total WRF-GC                        564.094
 max optd  1.9364301E+31
 max taucldi  0.5097414    
 max taucldw  6.4976011E-05
 Switching is not necessary as we are already
 in the right domain!
 GIGC_Chunk_Run: Running for in-PET grid #           1
 GIGC_Chunk_Run: Received new grid IM, JM, LM =          15           9
          49
 =================================================
 W R F - G C   T I M E R S
    Domain           1 (Units: s)
 =================================================
  => Coupler Component                       0.759
   -- Physics & Parameterization             0.203
   -- Diagnostics Out                        0.000
  => GEOS-Chem Column                      162.471
  ===> Total Chemistry                     163.230
  => WRF                                   420.128
  ===> Total WRF-GC                        583.358
 max optd  1.9364301E+31
 max taucldi  0.5938562    
 max taucldw  6.1491737E-05
 Switching is not necessary as we are already
 in the right domain!
 GIGC_Chunk_Run: Running for in-PET grid #           1
 GIGC_Chunk_Run: Received new grid IM, JM, LM =          15           9
          49
 =================================================
 W R F - G C   T I M E R S
    Domain           1 (Units: s)
 =================================================
  => Coupler Component                       0.791
   -- Physics & Parameterization             0.212
   -- Diagnostics Out                        0.000
  => GEOS-Chem Column                      163.523
  ===> Total Chemistry                     164.313
  => WRF                                   438.407
  ===> Total WRF-GC                        602.720
 max optd  1.9364301E+31
 max taucldi  0.6691513    
 max taucldw  5.8296871E-05
 Switching is not necessary as we are already
 in the right domain!
 GIGC_Chunk_Run: Running for in-PET grid #           1
 GIGC_Chunk_Run: Received new grid IM, JM, LM =          15           9
          49
 =================================================
 W R F - G C   T I M E R S
    Domain           1 (Units: s)
 =================================================
  => Coupler Component                       0.823
   -- Physics & Parameterization             0.221
   -- Diagnostics Out                        0.000
  => GEOS-Chem Column                      164.589
  ===> Total Chemistry                     165.413
  => WRF                                   456.598
  ===> Total WRF-GC                        622.011
 HOURLY EMISSIONS UPDATE TIME     7200.0       0.0
mediation_integrate: med_read_wrf_chem_emissions: Read emissions for time 2018-01-01_02:00:00
 max optd  1.9364301E+31
 max taucldi  0.6797664    
 max taucldw  5.5826520E-05
 Switching is not necessary as we are already
 in the right domain!
 GIGC_Chunk_Run: Running for in-PET grid #           1
 GIGC_Chunk_Run: Received new grid IM, JM, LM =          15           9
          49
 =================================================
 W R F - G C   T I M E R S
    Domain           1 (Units: s)
 =================================================
  => Coupler Component                       0.855
   -- Physics & Parameterization             0.230
   -- Diagnostics Out                        0.000
  => GEOS-Chem Column                      165.649
  ===> Total Chemistry                     166.504
  => WRF                                   474.786
  ===> Total WRF-GC                        641.291
 max optd  1.9364301E+31
 max taucldi  0.7568528    
 max taucldw  5.4431624E-05
 Switching is not necessary as we are already
 in the right domain!
 GIGC_Chunk_Run: Running for in-PET grid #           1
 GIGC_Chunk_Run: Received new grid IM, JM, LM =          15           9
          49
 =================================================
 W R F - G C   T I M E R S
    Domain           1 (Units: s)
 =================================================
  => Coupler Component                       0.891
   -- Physics & Parameterization             0.239
   -- Diagnostics Out                        0.000
  => GEOS-Chem Column                      166.702
  ===> Total Chemistry                     167.593
  => WRF                                   493.015
  ===> Total WRF-GC                        660.608
 max optd  1.9364301E+31
 max taucldi  0.8050731    
 max taucldw  5.4237426E-05
 Switching is not necessary as we are already
 in the right domain!
 GIGC_Chunk_Run: Running for in-PET grid #           1
 GIGC_Chunk_Run: Received new grid IM, JM, LM =          15           9
          49
 =================================================
 W R F - G C   T I M E R S
    Domain           1 (Units: s)
 =================================================
  => Coupler Component                       0.927
   -- Physics & Parameterization             0.249
   -- Diagnostics Out                        0.000
  => GEOS-Chem Column                      167.773
  ===> Total Chemistry                     168.700
  => WRF                                   511.131
  ===> Total WRF-GC                        679.831
 max optd  1.9364301E+31
 max taucldi  0.8969652    
 max taucldw  5.5388427E-05
 Switching is not necessary as we are already
 in the right domain!
 GIGC_Chunk_Run: Running for in-PET grid #           1
 GIGC_Chunk_Run: Received new grid IM, JM, LM =          15           9
          49
 =================================================
 W R F - G C   T I M E R S
    Domain           1 (Units: s)
 =================================================
  => Coupler Component                       0.962
   -- Physics & Parameterization             0.258
   -- Diagnostics Out                        0.000
  => GEOS-Chem Column                      168.816
  ===> Total Chemistry                     169.779
  => WRF                                   529.234
  ===> Total WRF-GC                        699.013
 max optd  1.9364301E+31
 max taucldi  0.9650774    
 max taucldw  5.7635749E-05
 Switching is not necessary as we are already
 in the right domain!
 GIGC_Chunk_Run: Running for in-PET grid #           1
 GIGC_Chunk_Run: Received new grid IM, JM, LM =          15           9
          49
 =================================================
 W R F - G C   T I M E R S
    Domain           1 (Units: s)
 =================================================
  => Coupler Component                       0.994
   -- Physics & Parameterization             0.267
   -- Diagnostics Out                        0.000
  => GEOS-Chem Column                      169.887
  ===> Total Chemistry                     170.881
  => WRF                                   547.384
  ===> Total WRF-GC                        718.266
 max optd  1.9364301E+31
 max taucldi   1.035820    
 max taucldw  6.0757513E-05
 Switching is not necessary as we are already
 in the right domain!
 GIGC_Chunk_Run: Running for in-PET grid #           1
 GIGC_Chunk_Run: Received new grid IM, JM, LM =          15           9
          49
 =================================================
 W R F - G C   T I M E R S
    Domain           1 (Units: s)
 =================================================
  => Coupler Component                       1.032
   -- Physics & Parameterization             0.277
   -- Diagnostics Out                        0.000
  => GEOS-Chem Column                      170.936
  ===> Total Chemistry                     171.968
  => WRF                                   565.511
  ===> Total WRF-GC                        737.479
 max optd  1.9364301E+31
 max taucldi   1.086550    
 max taucldw  6.4317690E-05
 Switching is not necessary as we are already
 in the right domain!
 GIGC_Chunk_Run: Running for in-PET grid #           1
 GIGC_Chunk_Run: Received new grid IM, JM, LM =          15           9
          49
 =================================================
 W R F - G C   T I M E R S
    Domain           1 (Units: s)
 =================================================
  => Coupler Component                       1.067
   -- Physics & Parameterization             0.286
   -- Diagnostics Out                        0.000
  => GEOS-Chem Column                      172.003
  ===> Total Chemistry                     173.070
  => WRF                                   583.650
  ===> Total WRF-GC                        756.720
 max optd  1.9364301E+31
 max taucldi   1.127101    
 max taucldw  6.7866415E-05
 Switching is not necessary as we are already
 in the right domain!
 GIGC_Chunk_Run: Running for in-PET grid #           1
 GIGC_Chunk_Run: Received new grid IM, JM, LM =          15           9
          49
 =================================================
 W R F - G C   T I M E R S
    Domain           1 (Units: s)
 =================================================
  => Coupler Component                       1.104
   -- Physics & Parameterization             0.295
   -- Diagnostics Out                        0.000
  => GEOS-Chem Column                      173.047
  ===> Total Chemistry                     174.151
  => WRF                                   601.724
  ===> Total WRF-GC                        775.874
 max optd  1.9364301E+31
 max taucldi   1.147170    
 max taucldw  7.0619935E-05
 Switching is not necessary as we are already
 in the right domain!
 GIGC_Chunk_Run: Running for in-PET grid #           1
 GIGC_Chunk_Run: Received new grid IM, JM, LM =          15           9
          49
 =================================================
 W R F - G C   T I M E R S
    Domain           1 (Units: s)
 =================================================
  => Coupler Component                       1.136
   -- Physics & Parameterization             0.304
   -- Diagnostics Out                        0.000
  => GEOS-Chem Column                      174.116
  ===> Total Chemistry                     175.253
  => WRF                                   619.848
  ===> Total WRF-GC                        795.100
 max optd  1.9364301E+31
 max taucldi   1.191801    
 max taucldw  7.2422474E-05
 Switching is not necessary as we are already
 in the right domain!
 GIGC_Chunk_Run: Running for in-PET grid #           1
 GIGC_Chunk_Run: Received new grid IM, JM, LM =          15           9
          49
 =================================================
 W R F - G C   T I M E R S
    Domain           1 (Units: s)
 =================================================
  => Coupler Component                       1.168
   -- Physics & Parameterization             0.313
   -- Diagnostics Out                        0.000
  => GEOS-Chem Column                      175.171
  ===> Total Chemistry                     176.340
  => WRF                                   637.977
  ===> Total WRF-GC                        814.317
 max optd  1.9364301E+31
 max taucldi   1.178413    
 max taucldw  7.3503485E-05
 Switching is not necessary as we are already
 in the right domain!
 GIGC_Chunk_Run: Running for in-PET grid #           1
 GIGC_Chunk_Run: Received new grid IM, JM, LM =          15           9
          49
 =================================================
 W R F - G C   T I M E R S
    Domain           1 (Units: s)
 =================================================
  => Coupler Component                       1.202
   -- Physics & Parameterization             0.322
   -- Diagnostics Out                        0.000
  => GEOS-Chem Column                      176.228
  ===> Total Chemistry                     177.431
  => WRF                                   656.050
  ===> Total WRF-GC                        833.480
 max optd  1.9364301E+31
 max taucldi   1.165134    
 max taucldw  7.3792879E-05
 Switching is not necessary as we are already
 in the right domain!
 GIGC_Chunk_Run: Running for in-PET grid #           1
 GIGC_Chunk_Run: Received new grid IM, JM, LM =          15           9
          49
 =================================================
 W R F - G C   T I M E R S
    Domain           1 (Units: s)
 =================================================
  => Coupler Component                       1.236
   -- Physics & Parameterization             0.332
   -- Diagnostics Out                        0.000
  => GEOS-Chem Column                      177.269
  ===> Total Chemistry                     178.505
  => WRF                                   674.126
  ===> Total WRF-GC                        852.631
 HOURLY EMISSIONS UPDATE TIME    10800.0       0.0
mediation_integrate: med_read_wrf_chem_emissions: Read emissions for time 2018-01-01_03:00:00
 max optd  1.9364301E+31
 max taucldi   1.134981    
 max taucldw  7.3484094E-05
 Switching is not necessary as we are already
 in the right domain!
 GIGC_Chunk_Run: Running for in-PET grid #           1
 GIGC_Chunk_Run: Received new grid IM, JM, LM =          15           9
          49
 =================================================
 W R F - G C   T I M E R S
    Domain           1 (Units: s)
 =================================================
  => Coupler Component                       1.267
   -- Physics & Parameterization             0.341
   -- Diagnostics Out                        0.000
  => GEOS-Chem Column                      178.340
  ===> Total Chemistry                     179.608
  => WRF                                   692.277
  ===> Total WRF-GC                        871.885
 max optd  1.9364301E+31
 max taucldi   1.091524    
 max taucldw  7.2801209E-05
 Switching is not necessary as we are already
 in the right domain!
 GIGC_Chunk_Run: Running for in-PET grid #           1
 GIGC_Chunk_Run: Received new grid IM, JM, LM =          15           9
          49
 =================================================
 W R F - G C   T I M E R S
    Domain           1 (Units: s)
 =================================================
  => Coupler Component                       1.300
   -- Physics & Parameterization             0.350
   -- Diagnostics Out                        0.000
  => GEOS-Chem Column                      179.403
  ===> Total Chemistry                     180.703
  => WRF                                   710.346
  ===> Total WRF-GC                        891.049
 max optd  1.9364301E+31
 max taucldi   1.072949    
 max taucldw  7.1770708E-05
 Switching is not necessary as we are already
 in the right domain!
 GIGC_Chunk_Run: Running for in-PET grid #           1
 GIGC_Chunk_Run: Received new grid IM, JM, LM =          15           9
          49
 =================================================
 W R F - G C   T I M E R S
    Domain           1 (Units: s)
 =================================================
  => Coupler Component                       1.336
   -- Physics & Parameterization             0.360
   -- Diagnostics Out                        0.000
  => GEOS-Chem Column                      180.454
  ===> Total Chemistry                     181.790
  => WRF                                   728.464
  ===> Total WRF-GC                        910.254
 max optd  1.9364301E+31
 max taucldi   1.102382    
 max taucldw  7.0699760E-05
 Switching is not necessary as we are already
 in the right domain!
 GIGC_Chunk_Run: Running for in-PET grid #           1
 GIGC_Chunk_Run: Received new grid IM, JM, LM =          15           9
          49
 =================================================
 W R F - G C   T I M E R S
    Domain           1 (Units: s)
 =================================================
  => Coupler Component                       1.374
   -- Physics & Parameterization             0.369
   -- Diagnostics Out                        0.000
  => GEOS-Chem Column                      181.496
  ===> Total Chemistry                     182.870
  => WRF                                   746.552
  ===> Total WRF-GC                        929.423
 max optd  1.9364301E+31
 max taucldi   1.133443    
 max taucldw  6.9341120E-05
 Switching is not necessary as we are already
 in the right domain!
 GIGC_Chunk_Run: Running for in-PET grid #           1
 GIGC_Chunk_Run: Received new grid IM, JM, LM =          15           9
          49
 =================================================
 W R F - G C   T I M E R S
    Domain           1 (Units: s)
 =================================================
  => Coupler Component                       1.405
   -- Physics & Parameterization             0.379
   -- Diagnostics Out                        0.000
  => GEOS-Chem Column                      182.560
  ===> Total Chemistry                     183.965
  => WRF                                   764.624
  ===> Total WRF-GC                        948.589
 max optd  1.9364301E+31
 max taucldi   1.157364    
 max taucldw  6.7526678E-05
 Switching is not necessary as we are already
 in the right domain!
 GIGC_Chunk_Run: Running for in-PET grid #           1
 GIGC_Chunk_Run: Received new grid IM, JM, LM =          15           9
          49
 =================================================
 W R F - G C   T I M E R S
    Domain           1 (Units: s)
 =================================================
  => Coupler Component                       1.440
   -- Physics & Parameterization             0.388
   -- Diagnostics Out                        0.000
  => GEOS-Chem Column                      183.593
  ===> Total Chemistry                     185.033
  => WRF                                   782.993
  ===> Total WRF-GC                        968.025
 max optd  1.9364301E+31
 max taucldi   1.170497    
 max taucldw  6.4787855E-05
 Switching is not necessary as we are already
 in the right domain!
 GIGC_Chunk_Run: Running for in-PET grid #           1
 GIGC_Chunk_Run: Received new grid IM, JM, LM =          15           9
          49
 =================================================
 W R F - G C   T I M E R S
    Domain           1 (Units: s)
 =================================================
  => Coupler Component                       1.473
   -- Physics & Parameterization             0.397
   -- Diagnostics Out                        0.000
  => GEOS-Chem Column                      184.646
  ===> Total Chemistry                     186.119
  => WRF                                   801.158
  ===> Total WRF-GC                        987.278
 max optd  1.9364301E+31
 max taucldi   1.167681    
 max taucldw  6.1636347E-05
 Switching is not necessary as we are already
 in the right domain!
 GIGC_Chunk_Run: Running for in-PET grid #           1
 GIGC_Chunk_Run: Received new grid IM, JM, LM =          15           9
          49
 =================================================
 W R F - G C   T I M E R S
    Domain           1 (Units: s)
 =================================================
  => Coupler Component                       1.508
   -- Physics & Parameterization             0.406
   -- Diagnostics Out                        0.000
  => GEOS-Chem Column                      185.675
  ===> Total Chemistry                     187.183
  => WRF                                   819.225
  ===> Total WRF-GC                       1006.408
 max optd  1.9364301E+31
 max taucldi   1.155798    
 max taucldw  6.0532810E-05
 Switching is not necessary as we are already
 in the right domain!
 GIGC_Chunk_Run: Running for in-PET grid #           1
 GIGC_Chunk_Run: Received new grid IM, JM, LM =          15           9
          49
 =================================================
 W R F - G C   T I M E R S
    Domain           1 (Units: s)
 =================================================
  => Coupler Component                       1.542
   -- Physics & Parameterization             0.415
   -- Diagnostics Out                        0.000
  => GEOS-Chem Column                      186.730
  ===> Total Chemistry                     188.272
  => WRF                                   837.449
  ===> Total WRF-GC                       1025.721
 max optd  1.9364301E+31
 max taucldi   1.151453    
 max taucldw  6.9397633E-05
 Switching is not necessary as we are already
 in the right domain!
 GIGC_Chunk_Run: Running for in-PET grid #           1
 GIGC_Chunk_Run: Received new grid IM, JM, LM =          15           9
          49
 =================================================
 W R F - G C   T I M E R S
    Domain           1 (Units: s)
 =================================================
  => Coupler Component                       1.576
   -- Physics & Parameterization             0.425
   -- Diagnostics Out                        0.000
  => GEOS-Chem Column                      187.785
  ===> Total Chemistry                     189.361
  => WRF                                   855.586
  ===> Total WRF-GC                       1044.947
 max optd  1.9364301E+31
 max taucldi   1.161728    
 max taucldw  7.6121207E-05
 Switching is not necessary as we are already
 in the right domain!
 GIGC_Chunk_Run: Running for in-PET grid #           1
 GIGC_Chunk_Run: Received new grid IM, JM, LM =          15           9
          49
 =================================================
 W R F - G C   T I M E R S
    Domain           1 (Units: s)
 =================================================
  => Coupler Component                       1.610
   -- Physics & Parameterization             0.434
   -- Diagnostics Out                        0.000
  => GEOS-Chem Column                      188.841
  ===> Total Chemistry                     190.450
  => WRF                                   873.691
  ===> Total WRF-GC                       1064.141
 max optd  1.9364301E+31
 max taucldi   1.167052    
 max taucldw  8.1311155E-05
 Switching is not necessary as we are already
 in the right domain!
 GIGC_Chunk_Run: Running for in-PET grid #           1
 GIGC_Chunk_Run: Received new grid IM, JM, LM =          15           9
          49
 =================================================
 W R F - G C   T I M E R S
    Domain           1 (Units: s)
 =================================================
  => Coupler Component                       1.643
   -- Physics & Parameterization             0.443
   -- Diagnostics Out                        0.000
  => GEOS-Chem Column                      189.907
  ===> Total Chemistry                     191.551
  => WRF                                   891.838
  ===> Total WRF-GC                       1083.389
 HOURLY EMISSIONS UPDATE TIME    14400.0       0.0
mediation_integrate: med_read_wrf_chem_emissions: Read emissions for time 2018-01-01_04:00:00
 max optd  1.9364301E+31
 max taucldi   1.168760    
 max taucldw  8.6141496E-05
 Switching is not necessary as we are already
 in the right domain!
 GIGC_Chunk_Run: Running for in-PET grid #           1
 GIGC_Chunk_Run: Received new grid IM, JM, LM =          15           9
          49
 =================================================
 W R F - G C   T I M E R S
    Domain           1 (Units: s)
 =================================================
  => Coupler Component                       1.677
   -- Physics & Parameterization             0.452
   -- Diagnostics Out                        0.000
  => GEOS-Chem Column                      190.968
  ===> Total Chemistry                     192.645
  => WRF                                   909.974
  ===> Total WRF-GC                       1102.620
 max optd  1.9364301E+31
 max taucldi   1.165056    
 max taucldw  9.3057846E-05
 Switching is not necessary as we are already
 in the right domain!
 GIGC_Chunk_Run: Running for in-PET grid #           1
 GIGC_Chunk_Run: Received new grid IM, JM, LM =          15           9
          49
 =================================================
 W R F - G C   T I M E R S
    Domain           1 (Units: s)
 =================================================
  => Coupler Component                       1.713
   -- Physics & Parameterization             0.461
   -- Diagnostics Out                        0.000
  => GEOS-Chem Column                      192.033
  ===> Total Chemistry                     193.745
  => WRF                                   928.105
  ===> Total WRF-GC                       1121.850
 max optd  1.9364301E+31
 max taucldi   1.151593    
 max taucldw  1.0028089E-04
 Switching is not necessary as we are already
 in the right domain!
 GIGC_Chunk_Run: Running for in-PET grid #           1
 GIGC_Chunk_Run: Received new grid IM, JM, LM =          15           9
          49
 =================================================
 W R F - G C   T I M E R S
    Domain           1 (Units: s)
 =================================================
  => Coupler Component                       1.745
   -- Physics & Parameterization             0.470
   -- Diagnostics Out                        0.000
  => GEOS-Chem Column                      193.097
  ===> Total Chemistry                     194.842
  => WRF                                   946.321
  ===> Total WRF-GC                       1141.162
 max optd  1.9364301E+31
 max taucldi   1.141068    
 max taucldw  1.0651202E-04
 Switching is not necessary as we are already
 in the right domain!
 GIGC_Chunk_Run: Running for in-PET grid #           1
 GIGC_Chunk_Run: Received new grid IM, JM, LM =          15           9
          49
 =================================================
 W R F - G C   T I M E R S
    Domain           1 (Units: s)
 =================================================
  => Coupler Component                       1.781
   -- Physics & Parameterization             0.480
   -- Diagnostics Out                        0.000
  => GEOS-Chem Column                      194.153
  ===> Total Chemistry                     195.934
  => WRF                                   964.426
  ===> Total WRF-GC                       1160.360
 max optd  1.9364301E+31
 max taucldi   1.133661    
 max taucldw  1.1108411E-04
 Switching is not necessary as we are already
 in the right domain!
 GIGC_Chunk_Run: Running for in-PET grid #           1
 GIGC_Chunk_Run: Received new grid IM, JM, LM =          15           9
          49
 =================================================
 W R F - G C   T I M E R S
    Domain           1 (Units: s)
 =================================================
  => Coupler Component                       1.813
   -- Physics & Parameterization             0.489
   -- Diagnostics Out                        0.000
  => GEOS-Chem Column                      195.226
  ===> Total Chemistry                     197.039
  => WRF                                   982.586
  ===> Total WRF-GC                       1179.625
 max optd  1.9364301E+31
 max taucldi   1.137942    
 max taucldw  1.1456264E-04
 Switching is not necessary as we are already
 in the right domain!
 GIGC_Chunk_Run: Running for in-PET grid #           1
 GIGC_Chunk_Run: Received new grid IM, JM, LM =          15           9
          49
 =================================================
 W R F - G C   T I M E R S
    Domain           1 (Units: s)
 =================================================
  => Coupler Component                       1.854
   -- Physics & Parameterization             0.498
   -- Diagnostics Out                        0.000
  => GEOS-Chem Column                      196.265
  ===> Total Chemistry                     198.119
  => WRF                                  1000.707
  ===> Total WRF-GC                       1198.825
 max optd  1.9364301E+31
 max taucldi   1.138879    
 max taucldw  1.1735974E-04
 Switching is not necessary as we are already
 in the right domain!
 GIGC_Chunk_Run: Running for in-PET grid #           1
 GIGC_Chunk_Run: Received new grid IM, JM, LM =          15           9
          49
 =================================================
 W R F - G C   T I M E R S
    Domain           1 (Units: s)
 =================================================
  => Coupler Component                       1.889
   -- Physics & Parameterization             0.507
   -- Diagnostics Out                        0.000
  => GEOS-Chem Column                      197.320
  ===> Total Chemistry                     199.209
  => WRF                                  1018.915
  ===> Total WRF-GC                       1218.125
 max optd  1.9364301E+31
 max taucldi   1.144684    
 max taucldw  1.1953559E-04
 Switching is not necessary as we are already
 in the right domain!
 GIGC_Chunk_Run: Running for in-PET grid #           1
 GIGC_Chunk_Run: Received new grid IM, JM, LM =          15           9
          49
 =================================================
 W R F - G C   T I M E R S
    Domain           1 (Units: s)
 =================================================
  => Coupler Component                       1.924
   -- Physics & Parameterization             0.517
   -- Diagnostics Out                        0.000
  => GEOS-Chem Column                      198.369
  ===> Total Chemistry                     200.293
  => WRF                                  1037.022
  ===> Total WRF-GC                       1237.314
 max optd  1.9364301E+31
 max taucldi   1.149593    
 max taucldw  1.2077420E-04
 Switching is not necessary as we are already
 in the right domain!
 GIGC_Chunk_Run: Running for in-PET grid #           1
 GIGC_Chunk_Run: Received new grid IM, JM, LM =          15           9
          49
 =================================================
 W R F - G C   T I M E R S
    Domain           1 (Units: s)
 =================================================
  => Coupler Component                       1.961
   -- Physics & Parameterization             0.526
   -- Diagnostics Out                        0.000
  => GEOS-Chem Column                      199.418
  ===> Total Chemistry                     201.380
  => WRF                                  1055.168
  ===> Total WRF-GC                       1256.547
 max optd  1.9364301E+31
 max taucldi   1.152412    
 max taucldw  1.2064635E-04
 Switching is not necessary as we are already
 in the right domain!
 GIGC_Chunk_Run: Running for in-PET grid #           1
 GIGC_Chunk_Run: Received new grid IM, JM, LM =          15           9
          49
 =================================================
 W R F - G C   T I M E R S
    Domain           1 (Units: s)
 =================================================
  => Coupler Component                       1.995
   -- Physics & Parameterization             0.536
   -- Diagnostics Out                        0.000
  => GEOS-Chem Column                      200.481
  ===> Total Chemistry                     202.475
  => WRF                                  1073.305
  ===> Total WRF-GC                       1275.781
 max optd  1.9364301E+31
 max taucldi   1.152382    
 max taucldw  1.1893562E-04
 Switching is not necessary as we are already
 in the right domain!
 GIGC_Chunk_Run: Running for in-PET grid #           1
 GIGC_Chunk_Run: Received new grid IM, JM, LM =          15           9
          49
 =================================================
 W R F - G C   T I M E R S
    Domain           1 (Units: s)
 =================================================
  => Coupler Component                       2.028
   -- Physics & Parameterization             0.545
   -- Diagnostics Out                        0.000
  => GEOS-Chem Column                      201.524
  ===> Total Chemistry                     203.552
  => WRF                                  1091.398
  ===> Total WRF-GC                       1294.950
 max optd  1.9364301E+31
 max taucldi   1.153706    
 max taucldw  1.1591978E-04
 Switching is not necessary as we are already
 in the right domain!
 GIGC_Chunk_Run: Running for in-PET grid #           1
 GIGC_Chunk_Run: Received new grid IM, JM, LM =          15           9
          49
 =================================================
 W R F - G C   T I M E R S
    Domain           1 (Units: s)
 =================================================
  => Coupler Component                       2.069
   -- Physics & Parameterization             0.554
   -- Diagnostics Out                        0.000
  => GEOS-Chem Column                      202.545
  ===> Total Chemistry                     204.614
  => WRF                                  1109.449
  ===> Total WRF-GC                       1314.063
 HOURLY EMISSIONS UPDATE TIME    18000.0       0.0
mediation_integrate: med_read_wrf_chem_emissions: Read emissions for time 2018-01-01_05:00:00
 max optd  1.9364301E+31
 max taucldi   1.154820    
 max taucldw  1.1224714E-04
 Switching is not necessary as we are already
 in the right domain!
 GIGC_Chunk_Run: Running for in-PET grid #           1
 GIGC_Chunk_Run: Received new grid IM, JM, LM =          15           9
          49
 =================================================
 W R F - G C   T I M E R S
    Domain           1 (Units: s)
 =================================================
  => Coupler Component                       2.105
   -- Physics & Parameterization             0.563
   -- Diagnostics Out                        0.000
  => GEOS-Chem Column                      203.604
  ===> Total Chemistry                     205.709
  => WRF                                  1127.665
  ===> Total WRF-GC                       1333.374
 max optd  1.9364301E+31
 max taucldi   1.148991    
 max taucldw  1.0842080E-04
 Switching is not necessary as we are already
 in the right domain!
 GIGC_Chunk_Run: Running for in-PET grid #           1
 GIGC_Chunk_Run: Received new grid IM, JM, LM =          15           9
          49
 =================================================
 W R F - G C   T I M E R S
    Domain           1 (Units: s)
 =================================================
  => Coupler Component                       2.140
   -- Physics & Parameterization             0.573
   -- Diagnostics Out                        0.000
  => GEOS-Chem Column                      204.666
  ===> Total Chemistry                     206.806
  => WRF                                  1145.761
  ===> Total WRF-GC                       1352.567
 max optd  1.9364301E+31
 max taucldi   1.136623    
 max taucldw  1.0505390E-04
 Switching is not necessary as we are already
 in the right domain!
 GIGC_Chunk_Run: Running for in-PET grid #           1
 GIGC_Chunk_Run: Received new grid IM, JM, LM =          15           9
          49
 =================================================
 W R F - G C   T I M E R S
    Domain           1 (Units: s)
 =================================================
  => Coupler Component                       2.175
   -- Physics & Parameterization             0.582
   -- Diagnostics Out                        0.000
  => GEOS-Chem Column                      205.717
  ===> Total Chemistry                     207.892
  => WRF                                  1163.849
  ===> Total WRF-GC                       1371.741
 max optd  1.9364301E+31
 max taucldi   1.115316    
 max taucldw  1.0284709E-04
 Switching is not necessary as we are already
 in the right domain!
 GIGC_Chunk_Run: Running for in-PET grid #           1
 GIGC_Chunk_Run: Received new grid IM, JM, LM =          15           9
          49
 =================================================
 W R F - G C   T I M E R S
    Domain           1 (Units: s)
 =================================================
  => Coupler Component                       2.210
   -- Physics & Parameterization             0.591
   -- Diagnostics Out                        0.000
  => GEOS-Chem Column                      206.776
  ===> Total Chemistry                     208.987
  => WRF                                  1182.008
  ===> Total WRF-GC                       1390.995
 max optd  1.9364301E+31
 max taucldi   1.102200    
 max taucldw  1.0038851E-04
 Switching is not necessary as we are already
 in the right domain!
 GIGC_Chunk_Run: Running for in-PET grid #           1
 GIGC_Chunk_Run: Received new grid IM, JM, LM =          15           9
          49
 =================================================
 W R F - G C   T I M E R S
    Domain           1 (Units: s)
 =================================================
  => Coupler Component                       2.245
   -- Physics & Parameterization             0.600
   -- Diagnostics Out                        0.000
  => GEOS-Chem Column                      207.811
  ===> Total Chemistry                     210.057
  => WRF                                  1200.183
  ===> Total WRF-GC                       1410.240
 max optd  1.9364301E+31
 max taucldi   1.087543    
 max taucldw  9.7841199E-05
 Switching is not necessary as we are already
 in the right domain!
 GIGC_Chunk_Run: Running for in-PET grid #           1
 GIGC_Chunk_Run: Received new grid IM, JM, LM =          15           9
          49
 =================================================
 W R F - G C   T I M E R S
    Domain           1 (Units: s)
 =================================================
  => Coupler Component                       2.281
   -- Physics & Parameterization             0.610
   -- Diagnostics Out                        0.000
  => GEOS-Chem Column                      208.862
  ===> Total Chemistry                     211.144
  => WRF                                  1218.282
  ===> Total WRF-GC                       1429.426
 max optd  1.9364301E+31
 max taucldi   1.073739    
 max taucldw  9.5283460E-05
 Switching is not necessary as we are already
 in the right domain!
 GIGC_Chunk_Run: Running for in-PET grid #           1
 GIGC_Chunk_Run: Received new grid IM, JM, LM =          15           9
          49
 =================================================
 W R F - G C   T I M E R S
    Domain           1 (Units: s)
 =================================================
  => Coupler Component                       2.325
   -- Physics & Parameterization             0.620
   -- Diagnostics Out                        0.000
  => GEOS-Chem Column                      209.895
  ===> Total Chemistry                     212.220
  => WRF                                  1236.480
  ===> Total WRF-GC                       1448.700
 max optd  1.9364301E+31
 max taucldi   1.049420    
 max taucldw  9.2735252E-05
 Switching is not necessary as we are already
 in the right domain!
 GIGC_Chunk_Run: Running for in-PET grid #           1
 GIGC_Chunk_Run: Received new grid IM, JM, LM =          15           9
          49
 =================================================
 W R F - G C   T I M E R S
    Domain           1 (Units: s)
 =================================================
  => Coupler Component                       2.360
   -- Physics & Parameterization             0.629
   -- Diagnostics Out                        0.000
  => GEOS-Chem Column                      210.948
  ===> Total Chemistry                     213.309
  => WRF                                  1254.610
  ===> Total WRF-GC                       1467.919
 max optd  1.9364301E+31
 max taucldi   1.022085    
 max taucldw  9.0284702E-05
 Switching is not necessary as we are already
 in the right domain!
 GIGC_Chunk_Run: Running for in-PET grid #           1
 GIGC_Chunk_Run: Received new grid IM, JM, LM =          15           9
          49
 =================================================
 W R F - G C   T I M E R S
    Domain           1 (Units: s)
 =================================================
  => Coupler Component                       2.399
   -- Physics & Parameterization             0.638
   -- Diagnostics Out                        0.000
  => GEOS-Chem Column                      211.983
  ===> Total Chemistry                     214.382
  => WRF                                  1272.777
  ===> Total WRF-GC                       1487.159
 max optd  1.9364301E+31
 max taucldi  0.9930527    
 max taucldw  8.8363035E-05
 Switching is not necessary as we are already
 in the right domain!
 GIGC_Chunk_Run: Running for in-PET grid #           1
 GIGC_Chunk_Run: Received new grid IM, JM, LM =          15           9
          49
 =================================================
 W R F - G C   T I M E R S
    Domain           1 (Units: s)
 =================================================
  => Coupler Component                       2.433
   -- Physics & Parameterization             0.648
   -- Diagnostics Out                        0.000
  => GEOS-Chem Column                      213.038
  ===> Total Chemistry                     215.472
  => WRF                                  1291.202
  ===> Total WRF-GC                       1506.674
 max optd  1.9364301E+31
 max taucldi  0.9679188    
 max taucldw  8.6673332E-05
 Switching is not necessary as we are already
 in the right domain!
 GIGC_Chunk_Run: Running for in-PET grid #           1
 GIGC_Chunk_Run: Received new grid IM, JM, LM =          15           9
          49
 =================================================
 W R F - G C   T I M E R S
    Domain           1 (Units: s)
 =================================================
  => Coupler Component                       2.470
   -- Physics & Parameterization             0.657
   -- Diagnostics Out                        0.000
  => GEOS-Chem Column                      214.090
  ===> Total Chemistry                     216.560
  => WRF                                  1309.337
  ===> Total WRF-GC                       1525.897
 max optd  1.9364301E+31
 max taucldi  0.9397457    
 max taucldw  8.5168307E-05
 Switching is not necessary as we are already
 in the right domain!
 GIGC_Chunk_Run: Running for in-PET grid #           1
 GIGC_Chunk_Run: Received new grid IM, JM, LM =          15           9
          49
 =================================================
 W R F - G C   T I M E R S
    Domain           1 (Units: s)
 =================================================
  => Coupler Component                       2.502
   -- Physics & Parameterization             0.666
   -- Diagnostics Out                        0.000
  => GEOS-Chem Column                      215.143
  ===> Total Chemistry                     217.645
  => WRF                                  1327.464
  ===> Total WRF-GC                       1545.108
 HOURLY EMISSIONS UPDATE TIME    21600.0       0.0
mediation_integrate: med_read_wrf_chem_emissions: Read emissions for time 2018-01-01_06:00:00
 max optd  1.9364301E+31
 max taucldi  0.9035679    
 max taucldw  8.3894280E-05
 Switching is not necessary as we are already
 in the right domain!
 GIGC_Chunk_Run: Running for in-PET grid #           1
 GIGC_Chunk_Run: Received new grid IM, JM, LM =          15           9
          49
 =================================================
 W R F - G C   T I M E R S
    Domain           1 (Units: s)
 =================================================
  => Coupler Component                       2.539
   -- Physics & Parameterization             0.675
   -- Diagnostics Out                        0.000
  => GEOS-Chem Column                      216.190
  ===> Total Chemistry                     218.730
  => WRF                                  1786.152
  ===> Total WRF-GC                       2004.882
 max optd  1.9364301E+31
 max taucldi  0.8703821    
 max taucldw  8.2827595E-05
 Switching is not necessary as we are already
 in the right domain!
 GIGC_Chunk_Run: Running for in-PET grid #           1
 GIGC_Chunk_Run: Received new grid IM, JM, LM =          15           9
          49
 =================================================
 W R F - G C   T I M E R S
    Domain           1 (Units: s)
 =================================================
  => Coupler Component                       2.574
   -- Physics & Parameterization             0.684
   -- Diagnostics Out                        0.000
  => GEOS-Chem Column                      217.235
  ===> Total Chemistry                     219.809
  => WRF                                  1804.302
  ===> Total WRF-GC                       2024.111
 max optd  1.9364301E+31
 max taucldi  0.8450339    
 max taucldw  8.1946295E-05
 Switching is not necessary as we are already
 in the right domain!
 GIGC_Chunk_Run: Running for in-PET grid #           1
 GIGC_Chunk_Run: Received new grid IM, JM, LM =          15           9
          49
 =================================================
 W R F - G C   T I M E R S
    Domain           1 (Units: s)
 =================================================
  => Coupler Component                       2.612
   -- Physics & Parameterization             0.694
   -- Diagnostics Out                        0.000
  => GEOS-Chem Column                      218.276
  ===> Total Chemistry                     220.888
  => WRF                                  1822.577
  ===> Total WRF-GC                       2043.465
 max optd  1.9364301E+31
 max taucldi  0.8283289    
 max taucldw  8.1574617E-05
 Switching is not necessary as we are already
 in the right domain!
 GIGC_Chunk_Run: Running for in-PET grid #           1
 GIGC_Chunk_Run: Received new grid IM, JM, LM =          15           9
          49
 =================================================
 W R F - G C   T I M E R S
    Domain           1 (Units: s)
 =================================================
  => Coupler Component                       2.650
[...]
  => GEOS-Chem Column                      266.046
  ===> Total Chemistry                     270.177
  => WRF                                  2640.580
  ===> Total WRF-GC                       2910.756
 HOURLY EMISSIONS UPDATE TIME    36000.0       0.0
mediation_integrate: med_read_wrf_chem_emissions: Read emissions for time 2018-01-01_10:00:00
 max optd  1.9364301E+31
 max taucldi   1.347554    
 max taucldw   3.744991    
 Switching is not necessary as we are already
 in the right domain!
 GIGC_Chunk_Run: Running for in-PET grid #           1
 GIGC_Chunk_Run: Received new grid IM, JM, LM =          15           9
          49
 =================================================
 W R F - G C   T I M E R S
    Domain           1 (Units: s)
 =================================================
  => Coupler Component                       4.167
   -- Physics & Parameterization             1.120
   -- Diagnostics Out                        0.000
  => GEOS-Chem Column                      267.096
  ===> Total Chemistry                     271.263
  => WRF                                  2658.800
  ===> Total WRF-GC                       2930.063
 max optd  1.9364301E+31
 max taucldi   1.358196    
 max taucldw   4.113657    
 Switching is not necessary as we are already
 in the right domain!
 GIGC_Chunk_Run: Running for in-PET grid #           1
 GIGC_Chunk_Run: Received new grid IM, JM, LM =          15           9
          49
 =================================================
 W R F - G C   T I M E R S
    Domain           1 (Units: s)
 =================================================
  => Coupler Component                       4.199
   -- Physics & Parameterization             1.129
   -- Diagnostics Out                        0.000
  => GEOS-Chem Column                      268.151
  ===> Total Chemistry                     272.350
  => WRF                                  2676.955
  ===> Total WRF-GC                       2949.305
 max optd  1.9364301E+31
 max taucldi   1.363668    
 max taucldw   4.460454    
 Switching is not necessary as we are already
 in the right domain!
 GIGC_Chunk_Run: Running for in-PET grid #           1
 GIGC_Chunk_Run: Received new grid IM, JM, LM =          15           9
          49
 =================================================
 W R F - G C   T I M E R S
    Domain           1 (Units: s)
 =================================================
  => Coupler Component                       4.232
   -- Physics & Parameterization             1.138
   -- Diagnostics Out                        0.000
  => GEOS-Chem Column                      269.215
  ===> Total Chemistry                     273.447
  => WRF                                  2695.102
  ===> Total WRF-GC                       2968.549
 max optd  1.9364301E+31
 max taucldi   1.380417    
 max taucldw   4.627610    
 Switching is not necessary as we are already
 in the right domain!
 GIGC_Chunk_Run: Running for in-PET grid #           1
 GIGC_Chunk_Run: Received new grid IM, JM, LM =          15           9
          49
 =================================================
 W R F - G C   T I M E R S
    Domain           1 (Units: s)
 =================================================
  => Coupler Component                       4.266
   -- Physics & Parameterization             1.148
   -- Diagnostics Out                        0.000
  => GEOS-Chem Column                      270.266
  ===> Total Chemistry                     274.531
  => WRF                                  2713.343
  ===> Total WRF-GC                       2987.874
 max optd  1.9364301E+31
 max taucldi   1.382287    
 max taucldw   4.760302    
 Switching is not necessary as we are already
 in the right domain!
 GIGC_Chunk_Run: Running for in-PET grid #           1
 GIGC_Chunk_Run: Received new grid IM, JM, LM =          15           9
          49
 =================================================
 W R F - G C   T I M E R S
    Domain           1 (Units: s)
 =================================================
  => Coupler Component                       4.298
   -- Physics & Parameterization             1.157
   -- Diagnostics Out                        0.000
  => GEOS-Chem Column                      271.324
  ===> Total Chemistry                     275.622
  => WRF                                  2731.532
  ===> Total WRF-GC                       3007.154
 max optd  1.9364301E+31
 max taucldi   1.401094    
 max taucldw   4.823798    
 Switching is not necessary as we are already
 in the right domain!
 GIGC_Chunk_Run: Running for in-PET grid #           1
 GIGC_Chunk_Run: Received new grid IM, JM, LM =          15           9
          49
 =================================================
 W R F - G C   T I M E R S
    Domain           1 (Units: s)
 =================================================
  => Coupler Component                       4.336
   -- Physics & Parameterization             1.167
   -- Diagnostics Out                        0.000
  => GEOS-Chem Column                      272.367
  ===> Total Chemistry                     276.703
  => WRF                                  2749.642
  ===> Total WRF-GC                       3026.345
 max optd  1.9364301E+31
 max taucldi   1.406462    
 max taucldw   4.870243    
 Switching is not necessary as we are already
 in the right domain!
 GIGC_Chunk_Run: Running for in-PET grid #           1
 GIGC_Chunk_Run: Received new grid IM, JM, LM =          15           9
          49
 =================================================
 W R F - G C   T I M E R S
    Domain           1 (Units: s)
 =================================================
  => Coupler Component                       4.369
   -- Physics & Parameterization             1.176
   -- Diagnostics Out                        0.000
  => GEOS-Chem Column                      273.438
  ===> Total Chemistry                     277.807
  => WRF                                  2767.834
  ===> Total WRF-GC                       3045.641
 max optd  1.9364301E+31
 max taucldi   1.418949    
 max taucldw   4.961644    
 Switching is not necessary as we are already
 in the right domain!
 GIGC_Chunk_Run: Running for in-PET grid #           1
 GIGC_Chunk_Run: Received new grid IM, JM, LM =          15           9
          49
 =================================================
 W R F - G C   T I M E R S
    Domain           1 (Units: s)
 =================================================
  => Coupler Component                       4.402
   -- Physics & Parameterization             1.185
   -- Diagnostics Out                        0.000
  => GEOS-Chem Column                      274.493
  ===> Total Chemistry                     278.894
  => WRF                                  2785.983
  ===> Total WRF-GC                       3064.877
 max optd  1.9364301E+31
 max taucldi   1.437802    
 max taucldw   5.051079    
 Switching is not necessary as we are already
 in the right domain!
 GIGC_Chunk_Run: Running for in-PET grid #           1
 GIGC_Chunk_Run: Received new grid IM, JM, LM =          15           9
          49
 =================================================
 W R F - G C   T I M E R S
    Domain           1 (Units: s)
 =================================================
  => Coupler Component                       4.435
   -- Physics & Parameterization             1.194
   -- Diagnostics Out                        0.000
  => GEOS-Chem Column                      275.553
  ===> Total Chemistry                     279.988
  => WRF                                  2804.122
  ===> Total WRF-GC                       3084.110
 max optd  1.9364301E+31
 max taucldi   1.441581    
 max taucldw   5.163971    
 Switching is not necessary as we are already
 in the right domain!
 GIGC_Chunk_Run: Running for in-PET grid #           1
 GIGC_Chunk_Run: Received new grid IM, JM, LM =          15           9
          49
 =================================================
 W R F - G C   T I M E R S
    Domain           1 (Units: s)
 =================================================
  => Coupler Component                       4.466
   -- Physics & Parameterization             1.203
   -- Diagnostics Out                        0.000
  => GEOS-Chem Column                      276.619
  ===> Total Chemistry                     281.085
  => WRF                                  2822.337
  ===> Total WRF-GC                       3103.423
 max optd  1.9364301E+31
 max taucldi   1.469645    
 max taucldw   5.230103    
 Switching is not necessary as we are already
 in the right domain!
 GIGC_Chunk_Run: Running for in-PET grid #           1
 GIGC_Chunk_Run: Received new grid IM, JM, LM =          15           9
          49
 =================================================
 W R F - G C   T I M E R S
    Domain           1 (Units: s)
 =================================================
  => Coupler Component                       4.499
   -- Physics & Parameterization             1.213
   -- Diagnostics Out                        0.000
  => GEOS-Chem Column                      277.678
  ===> Total Chemistry                     282.177
  => WRF                                  2840.476
  ===> Total WRF-GC                       3122.653
 max optd  1.9364301E+31
 max taucldi   1.485853    
 max taucldw   5.213383    
 Switching is not necessary as we are already
 in the right domain!
 GIGC_Chunk_Run: Running for in-PET grid #           1
 GIGC_Chunk_Run: Received new grid IM, JM, LM =          15           9
          49
 =================================================
 W R F - G C   T I M E R S
    Domain           1 (Units: s)
 =================================================
  => Coupler Component                       4.531
   -- Physics & Parameterization             1.222
   -- Diagnostics Out                        0.000
  => GEOS-Chem Column                      278.752
  ===> Total Chemistry                     283.283
  => WRF                                  2858.694
  ===> Total WRF-GC                       3141.977
 HOURLY EMISSIONS UPDATE TIME    39600.0       0.0
mediation_integrate: med_read_wrf_chem_emissions: Read emissions for time 2018-01-01_11:00:00
 max optd  1.9364301E+31
 max taucldi   1.472552    
 max taucldw   5.402208    
 Switching is not necessary as we are already
 in the right domain!
 GIGC_Chunk_Run: Running for in-PET grid #           1
 GIGC_Chunk_Run: Received new grid IM, JM, LM =          15           9
          49
 =================================================
 W R F - G C   T I M E R S
    Domain           1 (Units: s)
 =================================================
  => Coupler Component                       4.564
   -- Physics & Parameterization             1.232
   -- Diagnostics Out                        0.000
  => GEOS-Chem Column                      279.820
  ===> Total Chemistry                     284.384
  => WRF                                  2876.865
  ===> Total WRF-GC                       3161.249
 max optd  1.9364301E+31
 max taucldi   1.483489    
 max taucldw   5.541703    
 Switching is not necessary as we are already
 in the right domain!
 GIGC_Chunk_Run: Running for in-PET grid #           1
 GIGC_Chunk_Run: Received new grid IM, JM, LM =          15           9
          49
 =================================================
 W R F - G C   T I M E R S
    Domain           1 (Units: s)
 =================================================
  => Coupler Component                       4.602
   -- Physics & Parameterization             1.241
   -- Diagnostics Out                        0.000
  => GEOS-Chem Column                      280.872
  ===> Total Chemistry                     285.474
  => WRF                                  2894.973
  ===> Total WRF-GC                       3180.446
 max optd  1.9364301E+31
 max taucldi   1.500816    
 max taucldw   5.680974    
 Switching is not necessary as we are already
 in the right domain!
 GIGC_Chunk_Run: Running for in-PET grid #           1
 GIGC_Chunk_Run: Received new grid IM, JM, LM =          15           9
          49
 =================================================
 W R F - G C   T I M E R S
    Domain           1 (Units: s)
 =================================================
  => Coupler Component                       4.635
   -- Physics & Parameterization             1.250
   -- Diagnostics Out                        0.000
  => GEOS-Chem Column                      281.940
  ===> Total Chemistry                     286.575
  => WRF                                  2913.216
  ===> Total WRF-GC                       3199.791
 max optd  1.9364301E+31
 max taucldi   1.518802    
 max taucldw   5.757323    
 Switching is not necessary as we are already
 in the right domain!
 GIGC_Chunk_Run: Running for in-PET grid #           1
 GIGC_Chunk_Run: Received new grid IM, JM, LM =          15           9
          49
 =================================================
 W R F - G C   T I M E R S
    Domain           1 (Units: s)
 =================================================
  => Coupler Component                       4.667
   -- Physics & Parameterization             1.260
   -- Diagnostics Out                        0.000
  => GEOS-Chem Column                      283.014
  ===> Total Chemistry                     287.681
  => WRF                                  2931.496
  ===> Total WRF-GC                       3219.177
 max optd  1.9364301E+31
 max taucldi   1.541830    
 max taucldw   5.724146    
 Switching is not necessary as we are already
 in the right domain!
 GIGC_Chunk_Run: Running for in-PET grid #           1
 GIGC_Chunk_Run: Received new grid IM, JM, LM =          15           9
          49
 =================================================
 W R F - G C   T I M E R S
    Domain           1 (Units: s)
 =================================================
  => Coupler Component                       4.699
   -- Physics & Parameterization             1.269
   -- Diagnostics Out                        0.000
  => GEOS-Chem Column                      284.086
  ===> Total Chemistry                     288.785
  => WRF                                  2949.903
  ===> Total WRF-GC                       3238.688
 max optd  1.9364301E+31
 max taucldi   1.539654    
 max taucldw   5.596855    
 Switching is not necessary as we are already
 in the right domain!
 GIGC_Chunk_Run: Running for in-PET grid #           1
 GIGC_Chunk_Run: Received new grid IM, JM, LM =          15           9
          49
 =================================================
 W R F - G C   T I M E R S
    Domain           1 (Units: s)
 =================================================
  => Coupler Component                       4.732
   -- Physics & Parameterization             1.278
   -- Diagnostics Out                        0.000
  => GEOS-Chem Column                      285.136
  ===> Total Chemistry                     289.868
  => WRF                                  2968.288
  ===> Total WRF-GC                       3258.156
 max optd  1.9364301E+31
 max taucldi   1.523937    
 max taucldw   5.413180    
 Switching is not necessary as we are already
 in the right domain!
 GIGC_Chunk_Run: Running for in-PET grid #           1
 GIGC_Chunk_Run: Received new grid IM, JM, LM =          15           9
          49
 =================================================
 W R F - G C   T I M E R S
    Domain           1 (Units: s)
 =================================================
  => Coupler Component                       4.764
   -- Physics & Parameterization             1.287
   -- Diagnostics Out                        0.000
  => GEOS-Chem Column                      286.203
  ===> Total Chemistry                     290.967
  => WRF                                  2986.838
  ===> Total WRF-GC                       3277.805
 max optd  1.9364301E+31
 max taucldi   1.517148    
 max taucldw   5.529730    
 Switching is not necessary as we are already
 in the right domain!
 GIGC_Chunk_Run: Running for in-PET grid #           1
 GIGC_Chunk_Run: Received new grid IM, JM, LM =          15           9
          49
 =================================================
 W R F - G C   T I M E R S
    Domain           1 (Units: s)
 =================================================
  => Coupler Component                       4.797
   -- Physics & Parameterization             1.297
   -- Diagnostics Out                        0.000
  => GEOS-Chem Column                      287.265
  ===> Total Chemistry                     292.062
  => WRF                                  3005.401
  ===> Total WRF-GC                       3297.463
 max optd  1.9364301E+31
 max taucldi   1.510068    
 max taucldw   5.545085    
 Switching is not necessary as we are already
 in the right domain!
 GIGC_Chunk_Run: Running for in-PET grid #           1
 GIGC_Chunk_Run: Received new grid IM, JM, LM =          15           9
          49
 =================================================
 W R F - G C   T I M E R S
    Domain           1 (Units: s)
 =================================================
  => Coupler Component                       4.829
   -- Physics & Parameterization             1.306
   -- Diagnostics Out                        0.000
  => GEOS-Chem Column                      288.341
  ===> Total Chemistry                     293.170
  => WRF                                  3024.085
  ===> Total WRF-GC                       3317.255
 max optd  1.9364301E+31
 max taucldi   1.508777    
 max taucldw   5.491263    
 Switching is not necessary as we are already
 in the right domain!
 GIGC_Chunk_Run: Running for in-PET grid #           1
 GIGC_Chunk_Run: Received new grid IM, JM, LM =          15           9
          49
 =================================================
 W R F - G C   T I M E R S
    Domain           1 (Units: s)
 =================================================
  => Coupler Component                       4.864
   -- Physics & Parameterization             1.316
   -- Diagnostics Out                        0.000
  => GEOS-Chem Column                      289.395
  ===> Total Chemistry                     294.259
  => WRF                                  3042.963
  ===> Total WRF-GC                       3337.222
 max optd  1.9364301E+31
 max taucldi   1.506860    
 max taucldw   5.359725    
 Switching is not necessary as we are already
 in the right domain!
 GIGC_Chunk_Run: Running for in-PET grid #           1
 GIGC_Chunk_Run: Received new grid IM, JM, LM =          15           9
          49
 =================================================
 W R F - G C   T I M E R S
    Domain           1 (Units: s)
 =================================================
  => Coupler Component                       4.898
   -- Physics & Parameterization             1.325
   -- Diagnostics Out                        0.000
  => GEOS-Chem Column                      290.439
  ===> Total Chemistry                     295.337
  => WRF                                  3061.783
  ===> Total WRF-GC                       3357.120
 max optd  1.9364301E+31
 max taucldi   1.503971    
 max taucldw   5.007112    
 Switching is not necessary as we are already
 in the right domain!
 GIGC_Chunk_Run: Running for in-PET grid #           1
 GIGC_Chunk_Run: Received new grid IM, JM, LM =          15           9
          49
 =================================================
 W R F - G C   T I M E R S
    Domain           1 (Units: s)
 =================================================
  => Coupler Component                       4.930
   -- Physics & Parameterization             1.334
   -- Diagnostics Out                        0.000
  => GEOS-Chem Column                      291.486
  ===> Total Chemistry                     296.416
  => WRF                                  3080.540
  ===> Total WRF-GC                       3376.956
d01 2018-01-01_12:00:00 wrf: SUCCESS COMPLETE WRF
