taskid: 0 hostname: ip-172-31-0-17
 module_io_quilt_old.F        2931 F
Quilting with   1 groups of   0 I/O tasks.
 Ntasks in X           64 , ntasks in Y           72
--- WARNING: traj_opt is zero, but num_traj is not zero; setting num_traj to zero.
--- NOTE: sst_update is 0, setting io_form_auxinput4 = 0 and auxinput4_interval = 0 for all domains
--- NOTE: grid_fdda is 0 for domain      1, setting gfdda interval and ending time to 0 for that domain.
--- NOTE: both grid_sfdda and pxlsm_soil_nudge are 0 for domain      1, setting sgfdda interval and ending time to 0 for that domain.
--- NOTE: obs_nudge_opt is 0 for domain      1, setting obs nudging interval and ending time to 0 for that domain.
--- NOTE: bl_pbl_physics /= 4, implies mfshconv must be 0, resetting
Need MYNN PBL for icloud_bl = 1, resetting to 0
*************************************
No physics suite selected.
Physics options will be used directly from the namelist.
*************************************
--- NOTE: RRTMG radiation is in use, setting:  levsiz=59, alevsiz=12, no_src_types=6
--- NOTE: num_soil_layers has been set to      4
WRF V3.9.1.1 MODEL
 *************************************
 Parent domain
 ids,ide,jds,jde            1         950           1         650
 ims,ime,jms,jme           -4          22          -4          17
 ips,ipe,jps,jpe            1          15           1          10
 *************************************
DYNAMICS OPTION: Eulerian Mass Coordinate
   alloc_space_field: domain            1 ,              184420660  bytes allocated
  med_initialdata_input: calling input_input
Timing for processing wrfinput file (stream 0) for domain        1:  107.97186 elapsed seconds
Max map factor in domain 1 =  1.40. Scale the dt in the model accordingly.
INPUT LandUse = "USGS"
 LANDUSE TYPE = "USGS" FOUND          33  CATEGORIES           2  SEASONS WATER CATEGORY =           16  SNOW CATEGORY =           24
INITIALIZE THREE Noah LSM RELATED TABLES
 LANDUSE TYPE = USGS FOUND          27  CATEGORIES
 INPUT SOIL TEXTURE CLASSIFICATION = STAS
 SOIL TEXTURE CLASSIFICATION = STAS FOUND          19  CATEGORIES
*****************************************************************
  __          _______  ______       _____  _____ _    _ _____
  \ \        / /  __ \|  ____|     / ____|/ ____| |  | |  __ \
   \ \  /\  / /| |__) | |__ ______| |  __| |    | |__| | |__) |
    \ \/  \/ / |  _  /|  __|______| | |_ | |    |  __  |  ___/
     \  /\  /  | | \ \| |         | |__| | |____| |  | | |
      \/  \/   |_|  \_\_|          \_____|\_____|_|  |_|_|
*****************************************************************
         WRF-GC MODEL, VERSION 1811.11 - WRF BINDINGS
 For errors, suggestions & feedback email linhaipeng@pku.edu.cn
*****************************************************************
    This is domain            1
 tropopause_init: intializing domain 01
 tropopause_init: open filename= clim_p_trop.nc

 tropopause_init: DONE intialized domain            1

 mediation_integrate.G        1728 DATASET=HISTORY
 mediation_integrate.G        1729  grid%id            1  grid%oid            1
Timing for Writing wrfout_d01_2018-01-01_00:00:00 for domain        1:  249.40575 elapsed seconds
 mediation_integrate: med_read_wrf_chem_emissions: Open file wrfchemi_00z_d01
 HOURLY EMISSIONS UPDATE TIME        0.0       0.0
mediation_integrate: med_read_wrf_chem_emissions: Read emissions for time 2018-01-01_00:00:00
open_aux_u : error opening wrffirechemi_d01_2018-01-01_00:00:00 for reading. 100
open_aux_u : error opening wrfchemi_gocart_bg_d01 for reading. 100
d01 2018-01-01_00:00:00 Input data processed for aux input   8 for domain   1
open_aux_u : error opening wrfchemv_d01 for reading. 100
Timing for processing lateral boundary for domain        1:   49.99747 elapsed seconds
 Tile Strategy is not specified. Assuming 1D-Y
WRF TILE   1 IS      1 IE     15 JS      1 JE     10
WRF NUMBER OF TILES =   1
Timing for main: time 2018-01-01_00:00:10 on domain   1:  300.26376 elapsed seconds
Timing for main: time 2018-01-01_00:00:20 on domain   1:    0.56350 elapsed seconds
Timing for main: time 2018-01-01_00:00:30 on domain   1:    0.59774 elapsed seconds
Timing for main: time 2018-01-01_00:00:40 on domain   1:    0.60330 elapsed seconds
Timing for main: time 2018-01-01_00:00:50 on domain   1:    0.59188 elapsed seconds
Timing for main: time 2018-01-01_00:01:00 on domain   1:    0.58675 elapsed seconds
Timing for main: time 2018-01-01_00:01:10 on domain   1:    0.60606 elapsed seconds
Timing for main: time 2018-01-01_00:01:20 on domain   1:    0.59367 elapsed seconds
Timing for main: time 2018-01-01_00:01:30 on domain   1:    0.60805 elapsed seconds
Timing for main: time 2018-01-01_00:01:40 on domain   1:    0.60312 elapsed seconds
Timing for main: time 2018-01-01_00:01:50 on domain   1:    0.60255 elapsed seconds
Timing for main: time 2018-01-01_00:02:00 on domain   1:    0.57836 elapsed seconds
Timing for main: time 2018-01-01_00:02:10 on domain   1:    0.61298 elapsed seconds
Timing for main: time 2018-01-01_00:02:20 on domain   1:    0.59478 elapsed seconds
Timing for main: time 2018-01-01_00:02:30 on domain   1:    0.59821 elapsed seconds
Timing for main: time 2018-01-01_00:02:40 on domain   1:    0.60558 elapsed seconds
Timing for main: time 2018-01-01_00:02:50 on domain   1:    0.60045 elapsed seconds
Timing for main: time 2018-01-01_00:03:00 on domain   1:    0.59531 elapsed seconds
Timing for main: time 2018-01-01_00:03:10 on domain   1:    0.58694 elapsed seconds
Timing for main: time 2018-01-01_00:03:20 on domain   1:    0.60040 elapsed seconds
Timing for main: time 2018-01-01_00:03:30 on domain   1:    0.59573 elapsed seconds
Timing for main: time 2018-01-01_00:03:40 on domain   1:    0.59291 elapsed seconds
Timing for main: time 2018-01-01_00:03:50 on domain   1:    0.58892 elapsed seconds
Timing for main: time 2018-01-01_00:04:00 on domain   1:    0.60142 elapsed seconds
Timing for main: time 2018-01-01_00:04:10 on domain   1:    0.59617 elapsed seconds
Timing for main: time 2018-01-01_00:04:20 on domain   1:    0.59374 elapsed seconds
Timing for main: time 2018-01-01_00:04:30 on domain   1:    0.58827 elapsed seconds
Timing for main: time 2018-01-01_00:04:40 on domain   1:    0.61517 elapsed seconds
Timing for main: time 2018-01-01_00:04:50 on domain   1:    0.58777 elapsed seconds
Timing for main: time 2018-01-01_00:05:00 on domain   1:  153.01208 elapsed seconds
Timing for main: time 2018-01-01_00:05:10 on domain   1:    3.50914 elapsed seconds
Timing for main: time 2018-01-01_00:05:20 on domain   1:    0.80600 elapsed seconds
Timing for main: time 2018-01-01_00:05:30 on domain   1:    0.62160 elapsed seconds
Timing for main: time 2018-01-01_00:05:40 on domain   1:    0.59553 elapsed seconds
Timing for main: time 2018-01-01_00:05:50 on domain   1:    0.61159 elapsed seconds
Timing for main: time 2018-01-01_00:06:00 on domain   1:    0.58550 elapsed seconds
Timing for main: time 2018-01-01_00:06:10 on domain   1:    0.61168 elapsed seconds
Timing for main: time 2018-01-01_00:06:20 on domain   1:    0.60116 elapsed seconds
Timing for main: time 2018-01-01_00:06:30 on domain   1:    0.60239 elapsed seconds
Timing for main: time 2018-01-01_00:06:40 on domain   1:    0.60179 elapsed seconds
Timing for main: time 2018-01-01_00:06:50 on domain   1:    0.60453 elapsed seconds
Timing for main: time 2018-01-01_00:07:00 on domain   1:    0.60346 elapsed seconds
Timing for main: time 2018-01-01_00:07:10 on domain   1:    0.60735 elapsed seconds
Timing for main: time 2018-01-01_00:07:20 on domain   1:    0.58757 elapsed seconds
Timing for main: time 2018-01-01_00:07:30 on domain   1:    0.60975 elapsed seconds
Timing for main: time 2018-01-01_00:07:40 on domain   1:    0.59538 elapsed seconds
Timing for main: time 2018-01-01_00:07:50 on domain   1:    0.59304 elapsed seconds
Timing for main: time 2018-01-01_00:08:00 on domain   1:    0.60808 elapsed seconds
Timing for main: time 2018-01-01_00:08:10 on domain   1:    0.61122 elapsed seconds
Timing for main: time 2018-01-01_00:08:20 on domain   1:    0.60961 elapsed seconds
Timing for main: time 2018-01-01_00:08:30 on domain   1:    0.57288 elapsed seconds
Timing for main: time 2018-01-01_00:08:40 on domain   1:    0.64136 elapsed seconds
Timing for main: time 2018-01-01_00:08:50 on domain   1:    0.59030 elapsed seconds
Timing for main: time 2018-01-01_00:09:00 on domain   1:    0.59111 elapsed seconds
Timing for main: time 2018-01-01_00:09:10 on domain   1:    0.61802 elapsed seconds
Timing for main: time 2018-01-01_00:09:20 on domain   1:    0.60365 elapsed seconds
Timing for main: time 2018-01-01_00:09:30 on domain   1:    0.59794 elapsed seconds
Timing for main: time 2018-01-01_00:09:40 on domain   1:    0.59933 elapsed seconds
Timing for main: time 2018-01-01_00:09:50 on domain   1:    0.60320 elapsed seconds
Timing for main: time 2018-01-01_00:10:00 on domain   1:    4.51822 elapsed seconds
Timing for main: time 2018-01-01_00:10:10 on domain   1:    0.53783 elapsed seconds
Timing for main: time 2018-01-01_00:10:20 on domain   1:    0.59158 elapsed seconds
Timing for main: time 2018-01-01_00:10:30 on domain   1:    0.62268 elapsed seconds
Timing for main: time 2018-01-01_00:10:40 on domain   1:    0.60034 elapsed seconds
Timing for main: time 2018-01-01_00:10:50 on domain   1:    0.59067 elapsed seconds
Timing for main: time 2018-01-01_00:11:00 on domain   1:    0.60815 elapsed seconds
Timing for main: time 2018-01-01_00:11:10 on domain   1:    0.59701 elapsed seconds
Timing for main: time 2018-01-01_00:11:20 on domain   1:    0.59849 elapsed seconds
Timing for main: time 2018-01-01_00:11:30 on domain   1:    0.59906 elapsed seconds
Timing for main: time 2018-01-01_00:11:40 on domain   1:    0.60018 elapsed seconds
Timing for main: time 2018-01-01_00:11:50 on domain   1:    0.60601 elapsed seconds
Timing for main: time 2018-01-01_00:12:00 on domain   1:    0.60445 elapsed seconds
Timing for main: time 2018-01-01_00:12:10 on domain   1:    0.59517 elapsed seconds
Timing for main: time 2018-01-01_00:12:20 on domain   1:    0.60081 elapsed seconds
Timing for main: time 2018-01-01_00:12:30 on domain   1:    0.60510 elapsed seconds
Timing for main: time 2018-01-01_00:12:40 on domain   1:    0.59190 elapsed seconds
Timing for main: time 2018-01-01_00:12:50 on domain   1:    0.60854 elapsed seconds
Timing for main: time 2018-01-01_00:13:00 on domain   1:    0.59875 elapsed seconds
Timing for main: time 2018-01-01_00:13:10 on domain   1:    0.59869 elapsed seconds
Timing for main: time 2018-01-01_00:13:20 on domain   1:    0.59683 elapsed seconds
Timing for main: time 2018-01-01_00:13:30 on domain   1:    0.60126 elapsed seconds
Timing for main: time 2018-01-01_00:13:40 on domain   1:    0.59352 elapsed seconds
Timing for main: time 2018-01-01_00:13:50 on domain   1:    0.60833 elapsed seconds
Timing for main: time 2018-01-01_00:14:00 on domain   1:    0.59665 elapsed seconds
Timing for main: time 2018-01-01_00:14:10 on domain   1:    0.60874 elapsed seconds
Timing for main: time 2018-01-01_00:14:20 on domain   1:    0.60009 elapsed seconds
Timing for main: time 2018-01-01_00:14:30 on domain   1:    0.60352 elapsed seconds
Timing for main: time 2018-01-01_00:14:40 on domain   1:    0.60353 elapsed seconds
Timing for main: time 2018-01-01_00:14:50 on domain   1:    0.59023 elapsed seconds
Timing for main: time 2018-01-01_00:15:00 on domain   1:    2.66555 elapsed seconds
Timing for main: time 2018-01-01_00:15:10 on domain   1:    0.61146 elapsed seconds
Timing for main: time 2018-01-01_00:15:20 on domain   1:    0.58954 elapsed seconds
Timing for main: time 2018-01-01_00:15:30 on domain   1:    0.58254 elapsed seconds
Timing for main: time 2018-01-01_00:15:40 on domain   1:    0.62142 elapsed seconds
Timing for main: time 2018-01-01_00:15:50 on domain   1:    0.59408 elapsed seconds
Timing for main: time 2018-01-01_00:16:00 on domain   1:    0.59196 elapsed seconds
Timing for main: time 2018-01-01_00:16:10 on domain   1:    0.60443 elapsed seconds
Timing for main: time 2018-01-01_00:16:20 on domain   1:    0.59477 elapsed seconds
Timing for main: time 2018-01-01_00:16:30 on domain   1:    0.60351 elapsed seconds
Timing for main: time 2018-01-01_00:16:40 on domain   1:    0.58951 elapsed seconds
Timing for main: time 2018-01-01_00:16:50 on domain   1:    0.61266 elapsed seconds
Timing for main: time 2018-01-01_00:17:00 on domain   1:    0.57192 elapsed seconds
Timing for main: time 2018-01-01_00:17:10 on domain   1:    0.61406 elapsed seconds
Timing for main: time 2018-01-01_00:17:20 on domain   1:    0.60749 elapsed seconds
Timing for main: time 2018-01-01_00:17:30 on domain   1:    0.60315 elapsed seconds
Timing for main: time 2018-01-01_00:17:40 on domain   1:    0.61000 elapsed seconds
Timing for main: time 2018-01-01_00:17:50 on domain   1:    0.59951 elapsed seconds
Timing for main: time 2018-01-01_00:18:00 on domain   1:    0.59722 elapsed seconds
Timing for main: time 2018-01-01_00:18:10 on domain   1:    0.60601 elapsed seconds
Timing for main: time 2018-01-01_00:18:20 on domain   1:    0.60220 elapsed seconds
Timing for main: time 2018-01-01_00:18:30 on domain   1:    0.60524 elapsed seconds
Timing for main: time 2018-01-01_00:18:40 on domain   1:    0.59768 elapsed seconds
Timing for main: time 2018-01-01_00:18:50 on domain   1:    0.60829 elapsed seconds
Timing for main: time 2018-01-01_00:19:00 on domain   1:    0.59795 elapsed seconds
Timing for main: time 2018-01-01_00:19:10 on domain   1:    0.59090 elapsed seconds
Timing for main: time 2018-01-01_00:19:20 on domain   1:    0.61096 elapsed seconds
Timing for main: time 2018-01-01_00:19:30 on domain   1:    0.58405 elapsed seconds
Timing for main: time 2018-01-01_00:19:40 on domain   1:    0.62196 elapsed seconds
Timing for main: time 2018-01-01_00:19:50 on domain   1:    0.60888 elapsed seconds
Timing for main: time 2018-01-01_00:20:00 on domain   1:    2.36840 elapsed seconds
Timing for main: time 2018-01-01_00:20:10 on domain   1:    0.46519 elapsed seconds
Timing for main: time 2018-01-01_00:20:20 on domain   1:    0.60296 elapsed seconds
Timing for main: time 2018-01-01_00:20:30 on domain   1:    0.60512 elapsed seconds
Timing for main: time 2018-01-01_00:20:40 on domain   1:    0.60755 elapsed seconds
Timing for main: time 2018-01-01_00:20:50 on domain   1:    0.59105 elapsed seconds
Timing for main: time 2018-01-01_00:21:00 on domain   1:    0.60484 elapsed seconds
Timing for main: time 2018-01-01_00:21:10 on domain   1:    0.60033 elapsed seconds
Timing for main: time 2018-01-01_00:21:20 on domain   1:    0.60183 elapsed seconds
Timing for main: time 2018-01-01_00:21:30 on domain   1:    0.59733 elapsed seconds
Timing for main: time 2018-01-01_00:21:40 on domain   1:    0.61018 elapsed seconds
Timing for main: time 2018-01-01_00:21:50 on domain   1:    0.59798 elapsed seconds
Timing for main: time 2018-01-01_00:22:00 on domain   1:    0.60667 elapsed seconds
Timing for main: time 2018-01-01_00:22:10 on domain   1:    0.59697 elapsed seconds
Timing for main: time 2018-01-01_00:22:20 on domain   1:    0.59989 elapsed seconds
Timing for main: time 2018-01-01_00:22:30 on domain   1:    0.59258 elapsed seconds
Timing for main: time 2018-01-01_00:22:40 on domain   1:    0.60575 elapsed seconds
Timing for main: time 2018-01-01_00:22:50 on domain   1:    0.59618 elapsed seconds
Timing for main: time 2018-01-01_00:23:00 on domain   1:    0.59988 elapsed seconds
Timing for main: time 2018-01-01_00:23:10 on domain   1:    0.60050 elapsed seconds
Timing for main: time 2018-01-01_00:23:20 on domain   1:    0.59555 elapsed seconds
Timing for main: time 2018-01-01_00:23:30 on domain   1:    0.60028 elapsed seconds
Timing for main: time 2018-01-01_00:23:40 on domain   1:    0.58642 elapsed seconds
Timing for main: time 2018-01-01_00:23:50 on domain   1:    0.60845 elapsed seconds
Timing for main: time 2018-01-01_00:24:00 on domain   1:    0.60303 elapsed seconds
Timing for main: time 2018-01-01_00:24:10 on domain   1:    0.61380 elapsed seconds
Timing for main: time 2018-01-01_00:24:20 on domain   1:    0.60251 elapsed seconds
Timing for main: time 2018-01-01_00:24:30 on domain   1:    0.60901 elapsed seconds
Timing for main: time 2018-01-01_00:24:40 on domain   1:    0.59070 elapsed seconds
Timing for main: time 2018-01-01_00:24:50 on domain   1:    0.58731 elapsed seconds
Timing for main: time 2018-01-01_00:25:00 on domain   1:    2.25857 elapsed seconds
Timing for main: time 2018-01-01_00:25:10 on domain   1:    0.46923 elapsed seconds
Timing for main: time 2018-01-01_00:25:20 on domain   1:    0.59492 elapsed seconds
Timing for main: time 2018-01-01_00:25:30 on domain   1:    0.59912 elapsed seconds
Timing for main: time 2018-01-01_00:25:40 on domain   1:    0.58461 elapsed seconds
Timing for main: time 2018-01-01_00:25:50 on domain   1:    0.58920 elapsed seconds
Timing for main: time 2018-01-01_00:26:00 on domain   1:    0.59788 elapsed seconds
Timing for main: time 2018-01-01_00:26:10 on domain   1:    0.60126 elapsed seconds
Timing for main: time 2018-01-01_00:26:20 on domain   1:    0.57141 elapsed seconds
Timing for main: time 2018-01-01_00:26:30 on domain   1:    0.62246 elapsed seconds
Timing for main: time 2018-01-01_00:26:40 on domain   1:    0.60143 elapsed seconds
Timing for main: time 2018-01-01_00:26:50 on domain   1:    0.59826 elapsed seconds
Timing for main: time 2018-01-01_00:27:00 on domain   1:    0.60098 elapsed seconds
Timing for main: time 2018-01-01_00:27:10 on domain   1:    0.60414 elapsed seconds
Timing for main: time 2018-01-01_00:27:20 on domain   1:    0.59654 elapsed seconds
Timing for main: time 2018-01-01_00:27:30 on domain   1:    0.60167 elapsed seconds
Timing for main: time 2018-01-01_00:27:40 on domain   1:    0.60747 elapsed seconds
Timing for main: time 2018-01-01_00:27:50 on domain   1:    0.59676 elapsed seconds
Timing for main: time 2018-01-01_00:28:00 on domain   1:    0.61124 elapsed seconds
Timing for main: time 2018-01-01_00:28:10 on domain   1:    0.59547 elapsed seconds
Timing for main: time 2018-01-01_00:28:20 on domain   1:    0.60752 elapsed seconds
Timing for main: time 2018-01-01_00:28:30 on domain   1:    0.60922 elapsed seconds
Timing for main: time 2018-01-01_00:28:40 on domain   1:    0.59371 elapsed seconds
Timing for main: time 2018-01-01_00:28:50 on domain   1:    0.61295 elapsed seconds
Timing for main: time 2018-01-01_00:29:00 on domain   1:    0.59748 elapsed seconds
Timing for main: time 2018-01-01_00:29:10 on domain   1:    0.60440 elapsed seconds
Timing for main: time 2018-01-01_00:29:20 on domain   1:    0.60870 elapsed seconds
Timing for main: time 2018-01-01_00:29:30 on domain   1:    0.59109 elapsed seconds
Timing for main: time 2018-01-01_00:29:40 on domain   1:    0.61362 elapsed seconds
Timing for main: time 2018-01-01_00:29:50 on domain   1:    0.60495 elapsed seconds
Timing for main: time 2018-01-01_00:30:00 on domain   1:    2.15033 elapsed seconds
Timing for main: time 2018-01-01_00:30:10 on domain   1:    0.61809 elapsed seconds
Timing for main: time 2018-01-01_00:30:20 on domain   1:    0.57983 elapsed seconds
Timing for main: time 2018-01-01_00:30:30 on domain   1:    0.58601 elapsed seconds
Timing for main: time 2018-01-01_00:30:40 on domain   1:    0.58204 elapsed seconds
Timing for main: time 2018-01-01_00:30:50 on domain   1:    0.60584 elapsed seconds
Timing for main: time 2018-01-01_00:31:00 on domain   1:    0.59607 elapsed seconds
Timing for main: time 2018-01-01_00:31:10 on domain   1:    0.60373 elapsed seconds
Timing for main: time 2018-01-01_00:31:20 on domain   1:    0.59677 elapsed seconds
Timing for main: time 2018-01-01_00:31:30 on domain   1:    0.60379 elapsed seconds
Timing for main: time 2018-01-01_00:31:40 on domain   1:    0.60570 elapsed seconds
Timing for main: time 2018-01-01_00:31:50 on domain   1:    0.60538 elapsed seconds
Timing for main: time 2018-01-01_00:32:00 on domain   1:    0.59165 elapsed seconds
Timing for main: time 2018-01-01_00:32:10 on domain   1:    0.60176 elapsed seconds
Timing for main: time 2018-01-01_00:32:20 on domain   1:    0.60606 elapsed seconds
Timing for main: time 2018-01-01_00:32:30 on domain   1:    0.59287 elapsed seconds
Timing for main: time 2018-01-01_00:32:40 on domain   1:    0.60149 elapsed seconds
Timing for main: time 2018-01-01_00:32:50 on domain   1:    0.58522 elapsed seconds
Timing for main: time 2018-01-01_00:33:00 on domain   1:    0.59937 elapsed seconds
Timing for main: time 2018-01-01_00:33:10 on domain   1:    0.59204 elapsed seconds
Timing for main: time 2018-01-01_00:33:20 on domain   1:    0.60912 elapsed seconds
Timing for main: time 2018-01-01_00:33:30 on domain   1:    0.60015 elapsed seconds
Timing for main: time 2018-01-01_00:33:40 on domain   1:    0.59330 elapsed seconds
Timing for main: time 2018-01-01_00:33:50 on domain   1:    0.60138 elapsed seconds
Timing for main: time 2018-01-01_00:34:00 on domain   1:    0.59738 elapsed seconds
Timing for main: time 2018-01-01_00:34:10 on domain   1:    0.60559 elapsed seconds
Timing for main: time 2018-01-01_00:34:20 on domain   1:    0.59917 elapsed seconds
Timing for main: time 2018-01-01_00:34:30 on domain   1:    0.59921 elapsed seconds
Timing for main: time 2018-01-01_00:34:40 on domain   1:    0.61167 elapsed seconds
Timing for main: time 2018-01-01_00:34:50 on domain   1:    0.59374 elapsed seconds
Timing for main: time 2018-01-01_00:35:00 on domain   1:    2.11484 elapsed seconds
Timing for main: time 2018-01-01_00:35:10 on domain   1:    0.55279 elapsed seconds
Timing for main: time 2018-01-01_00:35:20 on domain   1:    0.59409 elapsed seconds
Timing for main: time 2018-01-01_00:35:30 on domain   1:    0.56794 elapsed seconds
Timing for main: time 2018-01-01_00:35:40 on domain   1:    0.56791 elapsed seconds
Timing for main: time 2018-01-01_00:35:50 on domain   1:    0.60094 elapsed seconds
Timing for main: time 2018-01-01_00:36:00 on domain   1:    0.60254 elapsed seconds
Timing for main: time 2018-01-01_00:36:10 on domain   1:    0.60098 elapsed seconds
Timing for main: time 2018-01-01_00:36:20 on domain   1:    0.59644 elapsed seconds
Timing for main: time 2018-01-01_00:36:30 on domain   1:    0.60320 elapsed seconds
Timing for main: time 2018-01-01_00:36:40 on domain   1:    0.59626 elapsed seconds
Timing for main: time 2018-01-01_00:36:50 on domain   1:    0.60713 elapsed seconds
Timing for main: time 2018-01-01_00:37:00 on domain   1:    0.60093 elapsed seconds
Timing for main: time 2018-01-01_00:37:10 on domain   1:    0.60212 elapsed seconds
Timing for main: time 2018-01-01_00:37:20 on domain   1:    0.59210 elapsed seconds
Timing for main: time 2018-01-01_00:37:30 on domain   1:    0.60813 elapsed seconds
Timing for main: time 2018-01-01_00:37:40 on domain   1:    0.59777 elapsed seconds
Timing for main: time 2018-01-01_00:37:50 on domain   1:    0.60555 elapsed seconds
Timing for main: time 2018-01-01_00:38:00 on domain   1:    0.61175 elapsed seconds
Timing for main: time 2018-01-01_00:38:10 on domain   1:    0.59513 elapsed seconds
Timing for main: time 2018-01-01_00:38:20 on domain   1:    0.60639 elapsed seconds
Timing for main: time 2018-01-01_00:38:30 on domain   1:    0.59091 elapsed seconds
Timing for main: time 2018-01-01_00:38:40 on domain   1:    0.60381 elapsed seconds
Timing for main: time 2018-01-01_00:38:50 on domain   1:    0.59362 elapsed seconds
Timing for main: time 2018-01-01_00:39:00 on domain   1:    0.60567 elapsed seconds
Timing for main: time 2018-01-01_00:39:10 on domain   1:    0.59857 elapsed seconds
Timing for main: time 2018-01-01_00:39:20 on domain   1:    0.61347 elapsed seconds
Timing for main: time 2018-01-01_00:39:30 on domain   1:    0.61054 elapsed seconds
Timing for main: time 2018-01-01_00:39:40 on domain   1:    0.60160 elapsed seconds
Timing for main: time 2018-01-01_00:39:50 on domain   1:    0.59913 elapsed seconds
Timing for main: time 2018-01-01_00:40:00 on domain   1:    2.09717 elapsed seconds
Timing for main: time 2018-01-01_00:40:10 on domain   1:    0.54549 elapsed seconds
Timing for main: time 2018-01-01_00:40:20 on domain   1:    0.57120 elapsed seconds
Timing for main: time 2018-01-01_00:40:30 on domain   1:    0.61196 elapsed seconds
Timing for main: time 2018-01-01_00:40:40 on domain   1:    0.59379 elapsed seconds
Timing for main: time 2018-01-01_00:40:50 on domain   1:    0.57868 elapsed seconds
Timing for main: time 2018-01-01_00:41:00 on domain   1:    0.61695 elapsed seconds
Timing for main: time 2018-01-01_00:41:10 on domain   1:    0.60749 elapsed seconds
Timing for main: time 2018-01-01_00:41:20 on domain   1:    0.59391 elapsed seconds
Timing for main: time 2018-01-01_00:41:30 on domain   1:    0.61069 elapsed seconds
Timing for main: time 2018-01-01_00:41:40 on domain   1:    0.60791 elapsed seconds
Timing for main: time 2018-01-01_00:41:50 on domain   1:    0.60066 elapsed seconds
Timing for main: time 2018-01-01_00:42:00 on domain   1:    0.59828 elapsed seconds
Timing for main: time 2018-01-01_00:42:10 on domain   1:    0.60463 elapsed seconds
Timing for main: time 2018-01-01_00:42:20 on domain   1:    0.59777 elapsed seconds
Timing for main: time 2018-01-01_00:42:30 on domain   1:    0.60951 elapsed seconds
Timing for main: time 2018-01-01_00:42:40 on domain   1:    0.60474 elapsed seconds
Timing for main: time 2018-01-01_00:42:50 on domain   1:    0.61841 elapsed seconds
Timing for main: time 2018-01-01_00:43:00 on domain   1:    0.59303 elapsed seconds
Timing for main: time 2018-01-01_00:43:10 on domain   1:    0.63992 elapsed seconds
Timing for main: time 2018-01-01_00:43:20 on domain   1:    0.55278 elapsed seconds
Timing for main: time 2018-01-01_00:43:30 on domain   1:    0.60244 elapsed seconds
Timing for main: time 2018-01-01_00:43:40 on domain   1:    0.60144 elapsed seconds
Timing for main: time 2018-01-01_00:43:50 on domain   1:    0.60094 elapsed seconds
Timing for main: time 2018-01-01_00:44:00 on domain   1:    0.58765 elapsed seconds
Timing for main: time 2018-01-01_00:44:10 on domain   1:    0.60888 elapsed seconds
Timing for main: time 2018-01-01_00:44:20 on domain   1:    0.60344 elapsed seconds
Timing for main: time 2018-01-01_00:44:30 on domain   1:    0.60112 elapsed seconds
Timing for main: time 2018-01-01_00:44:40 on domain   1:    0.61021 elapsed seconds
Timing for main: time 2018-01-01_00:44:50 on domain   1:    0.60011 elapsed seconds
Timing for main: time 2018-01-01_00:45:00 on domain   1:    2.06902 elapsed seconds
Timing for main: time 2018-01-01_00:45:10 on domain   1:    0.67238 elapsed seconds
Timing for main: time 2018-01-01_00:45:20 on domain   1:    0.59165 elapsed seconds
Timing for main: time 2018-01-01_00:45:30 on domain   1:    0.57472 elapsed seconds
Timing for main: time 2018-01-01_00:45:40 on domain   1:    0.57406 elapsed seconds
Timing for main: time 2018-01-01_00:45:50 on domain   1:    0.58767 elapsed seconds
Timing for main: time 2018-01-01_00:46:00 on domain   1:    0.57459 elapsed seconds
Timing for main: time 2018-01-01_00:46:10 on domain   1:    0.61912 elapsed seconds
Timing for main: time 2018-01-01_00:46:20 on domain   1:    0.60062 elapsed seconds
Timing for main: time 2018-01-01_00:46:30 on domain   1:    0.59666 elapsed seconds
Timing for main: time 2018-01-01_00:46:40 on domain   1:    0.61087 elapsed seconds
Timing for main: time 2018-01-01_00:46:50 on domain   1:    0.58732 elapsed seconds
Timing for main: time 2018-01-01_00:47:00 on domain   1:    0.60382 elapsed seconds
Timing for main: time 2018-01-01_00:47:10 on domain   1:    0.59548 elapsed seconds
Timing for main: time 2018-01-01_00:47:20 on domain   1:    0.59454 elapsed seconds
Timing for main: time 2018-01-01_00:47:30 on domain   1:    0.61815 elapsed seconds
Timing for main: time 2018-01-01_00:47:40 on domain   1:    0.59514 elapsed seconds
Timing for main: time 2018-01-01_00:47:50 on domain   1:    0.60217 elapsed seconds
Timing for main: time 2018-01-01_00:48:00 on domain   1:    0.60357 elapsed seconds
Timing for main: time 2018-01-01_00:48:10 on domain   1:    0.59716 elapsed seconds
Timing for main: time 2018-01-01_00:48:20 on domain   1:    0.61843 elapsed seconds
Timing for main: time 2018-01-01_00:48:30 on domain   1:    0.59419 elapsed seconds
Timing for main: time 2018-01-01_00:48:40 on domain   1:    0.60195 elapsed seconds
Timing for main: time 2018-01-01_00:48:50 on domain   1:    0.61047 elapsed seconds
Timing for main: time 2018-01-01_00:49:00 on domain   1:    0.59501 elapsed seconds
Timing for main: time 2018-01-01_00:49:10 on domain   1:    0.59563 elapsed seconds
Timing for main: time 2018-01-01_00:49:20 on domain   1:    0.60367 elapsed seconds
Timing for main: time 2018-01-01_00:49:30 on domain   1:    0.61092 elapsed seconds
Timing for main: time 2018-01-01_00:49:40 on domain   1:    0.60196 elapsed seconds
Timing for main: time 2018-01-01_00:49:50 on domain   1:    0.59757 elapsed seconds
Timing for main: time 2018-01-01_00:50:00 on domain   1:    2.04701 elapsed seconds
Timing for main: time 2018-01-01_00:50:10 on domain   1:    0.55846 elapsed seconds
Timing for main: time 2018-01-01_00:50:20 on domain   1:    0.58687 elapsed seconds
Timing for main: time 2018-01-01_00:50:30 on domain   1:    0.61060 elapsed seconds
Timing for main: time 2018-01-01_00:50:40 on domain   1:    0.59987 elapsed seconds
Timing for main: time 2018-01-01_00:50:50 on domain   1:    0.59942 elapsed seconds
Timing for main: time 2018-01-01_00:51:00 on domain   1:    0.59793 elapsed seconds
Timing for main: time 2018-01-01_00:51:10 on domain   1:    0.59842 elapsed seconds
Timing for main: time 2018-01-01_00:51:20 on domain   1:    0.60868 elapsed seconds
Timing for main: time 2018-01-01_00:51:30 on domain   1:    0.60157 elapsed seconds
Timing for main: time 2018-01-01_00:51:40 on domain   1:    0.58988 elapsed seconds
Timing for main: time 2018-01-01_00:51:50 on domain   1:    0.60569 elapsed seconds
Timing for main: time 2018-01-01_00:52:00 on domain   1:    0.59712 elapsed seconds
Timing for main: time 2018-01-01_00:52:10 on domain   1:    0.60253 elapsed seconds
Timing for main: time 2018-01-01_00:52:20 on domain   1:    0.59997 elapsed seconds
Timing for main: time 2018-01-01_00:52:30 on domain   1:    0.59763 elapsed seconds
Timing for main: time 2018-01-01_00:52:40 on domain   1:    0.61777 elapsed seconds
Timing for main: time 2018-01-01_00:52:50 on domain   1:    0.59871 elapsed seconds
Timing for main: time 2018-01-01_00:53:00 on domain   1:    0.59998 elapsed seconds
Timing for main: time 2018-01-01_00:53:10 on domain   1:    0.59010 elapsed seconds
Timing for main: time 2018-01-01_00:53:20 on domain   1:    0.60715 elapsed seconds
Timing for main: time 2018-01-01_00:53:30 on domain   1:    0.60782 elapsed seconds
Timing for main: time 2018-01-01_00:53:40 on domain   1:    0.59493 elapsed seconds
Timing for main: time 2018-01-01_00:53:50 on domain   1:    0.59872 elapsed seconds
Timing for main: time 2018-01-01_00:54:00 on domain   1:    0.60316 elapsed seconds
Timing for main: time 2018-01-01_00:54:10 on domain   1:    0.65115 elapsed seconds
Timing for main: time 2018-01-01_00:54:20 on domain   1:    0.56177 elapsed seconds
Timing for main: time 2018-01-01_00:54:30 on domain   1:    0.61028 elapsed seconds
Timing for main: time 2018-01-01_00:54:40 on domain   1:    0.59952 elapsed seconds
Timing for main: time 2018-01-01_00:54:50 on domain   1:    0.59758 elapsed seconds
Timing for main: time 2018-01-01_00:55:00 on domain   1:    2.02550 elapsed seconds
Timing for main: time 2018-01-01_00:55:10 on domain   1:    0.54036 elapsed seconds
Timing for main: time 2018-01-01_00:55:20 on domain   1:    0.58400 elapsed seconds
Timing for main: time 2018-01-01_00:55:30 on domain   1:    0.55854 elapsed seconds
Timing for main: time 2018-01-01_00:55:40 on domain   1:    0.60316 elapsed seconds
Timing for main: time 2018-01-01_00:55:50 on domain   1:    0.56398 elapsed seconds
Timing for main: time 2018-01-01_00:56:00 on domain   1:    0.60725 elapsed seconds
Timing for main: time 2018-01-01_00:56:10 on domain   1:    0.61214 elapsed seconds
Timing for main: time 2018-01-01_00:56:20 on domain   1:    0.59331 elapsed seconds
Timing for main: time 2018-01-01_00:56:30 on domain   1:    0.60824 elapsed seconds
Timing for main: time 2018-01-01_00:56:40 on domain   1:    0.60195 elapsed seconds
Timing for main: time 2018-01-01_00:56:50 on domain   1:    0.60298 elapsed seconds
Timing for main: time 2018-01-01_00:57:00 on domain   1:    0.59315 elapsed seconds
Timing for main: time 2018-01-01_00:57:10 on domain   1:    0.59661 elapsed seconds
Timing for main: time 2018-01-01_00:57:20 on domain   1:    0.62412 elapsed seconds
Timing for main: time 2018-01-01_00:57:30 on domain   1:    0.59666 elapsed seconds
Timing for main: time 2018-01-01_00:57:40 on domain   1:    0.59071 elapsed seconds
Timing for main: time 2018-01-01_00:57:50 on domain   1:    0.62155 elapsed seconds
Timing for main: time 2018-01-01_00:58:00 on domain   1:    0.59885 elapsed seconds
Timing for main: time 2018-01-01_00:58:10 on domain   1:    0.59768 elapsed seconds
Timing for main: time 2018-01-01_00:58:20 on domain   1:    0.60173 elapsed seconds
Timing for main: time 2018-01-01_00:58:30 on domain   1:    0.60522 elapsed seconds
Timing for main: time 2018-01-01_00:58:40 on domain   1:    0.60188 elapsed seconds
Timing for main: time 2018-01-01_00:58:50 on domain   1:    0.57758 elapsed seconds
Timing for main: time 2018-01-01_00:59:00 on domain   1:    0.62051 elapsed seconds
Timing for main: time 2018-01-01_00:59:10 on domain   1:    0.60033 elapsed seconds
Timing for main: time 2018-01-01_00:59:20 on domain   1:    0.59069 elapsed seconds
Timing for main: time 2018-01-01_00:59:30 on domain   1:    0.59640 elapsed seconds
Timing for main: time 2018-01-01_00:59:40 on domain   1:    0.60328 elapsed seconds
Timing for main: time 2018-01-01_00:59:50 on domain   1:    0.60018 elapsed seconds
Timing for main: time 2018-01-01_01:00:00 on domain   1:    2.00451 elapsed seconds
 HOURLY EMISSIONS UPDATE TIME     3600.0       0.0
mediation_integrate: med_read_wrf_chem_emissions: Read emissions for time 2018-01-01_01:00:00
Timing for main: time 2018-01-01_01:00:10 on domain   1:    0.63815 elapsed seconds
Timing for main: time 2018-01-01_01:00:20 on domain   1:    0.57521 elapsed seconds
Timing for main: time 2018-01-01_01:00:30 on domain   1:    0.58831 elapsed seconds
Timing for main: time 2018-01-01_01:00:40 on domain   1:    0.60834 elapsed seconds
Timing for main: time 2018-01-01_01:00:50 on domain   1:    0.55052 elapsed seconds
Timing for main: time 2018-01-01_01:01:00 on domain   1:    0.60911 elapsed seconds
Timing for main: time 2018-01-01_01:01:10 on domain   1:    0.59844 elapsed seconds
Timing for main: time 2018-01-01_01:01:20 on domain   1:    0.59032 elapsed seconds
Timing for main: time 2018-01-01_01:01:30 on domain   1:    0.60135 elapsed seconds
Timing for main: time 2018-01-01_01:01:40 on domain   1:    0.59949 elapsed seconds
Timing for main: time 2018-01-01_01:01:50 on domain   1:    0.61015 elapsed seconds
Timing for main: time 2018-01-01_01:02:00 on domain   1:    0.60333 elapsed seconds
Timing for main: time 2018-01-01_01:02:10 on domain   1:    0.59838 elapsed seconds
Timing for main: time 2018-01-01_01:02:20 on domain   1:    0.60626 elapsed seconds
Timing for main: time 2018-01-01_01:02:30 on domain   1:    0.59565 elapsed seconds
Timing for main: time 2018-01-01_01:02:40 on domain   1:    0.60838 elapsed seconds
Timing for main: time 2018-01-01_01:02:50 on domain   1:    0.59926 elapsed seconds
Timing for main: time 2018-01-01_01:03:00 on domain   1:    0.59227 elapsed seconds
Timing for main: time 2018-01-01_01:03:10 on domain   1:    0.60494 elapsed seconds
Timing for main: time 2018-01-01_01:03:20 on domain   1:    0.60894 elapsed seconds
Timing for main: time 2018-01-01_01:03:30 on domain   1:    0.59310 elapsed seconds
Timing for main: time 2018-01-01_01:03:40 on domain   1:    0.61098 elapsed seconds
Timing for main: time 2018-01-01_01:03:50 on domain   1:    0.59938 elapsed seconds
Timing for main: time 2018-01-01_01:04:00 on domain   1:    0.60739 elapsed seconds
Timing for main: time 2018-01-01_01:04:10 on domain   1:    0.60016 elapsed seconds
Timing for main: time 2018-01-01_01:04:20 on domain   1:    0.59278 elapsed seconds
Timing for main: time 2018-01-01_01:04:30 on domain   1:    0.59723 elapsed seconds
Timing for main: time 2018-01-01_01:04:40 on domain   1:    0.61189 elapsed seconds
Timing for main: time 2018-01-01_01:04:50 on domain   1:    0.59501 elapsed seconds
Timing for main: time 2018-01-01_01:05:00 on domain   1:    2.01185 elapsed seconds
Timing for main: time 2018-01-01_01:05:10 on domain   1:    0.56502 elapsed seconds
Timing for main: time 2018-01-01_01:05:20 on domain   1:    0.58112 elapsed seconds
Timing for main: time 2018-01-01_01:05:30 on domain   1:    0.57594 elapsed seconds
Timing for main: time 2018-01-01_01:05:40 on domain   1:    0.60590 elapsed seconds
Timing for main: time 2018-01-01_01:05:50 on domain   1:    0.58967 elapsed seconds
Timing for main: time 2018-01-01_01:06:00 on domain   1:    0.60918 elapsed seconds
Timing for main: time 2018-01-01_01:06:10 on domain   1:    0.59620 elapsed seconds
Timing for main: time 2018-01-01_01:06:20 on domain   1:    0.60612 elapsed seconds
Timing for main: time 2018-01-01_01:06:30 on domain   1:    0.60937 elapsed seconds
Timing for main: time 2018-01-01_01:06:40 on domain   1:    0.61139 elapsed seconds
Timing for main: time 2018-01-01_01:06:50 on domain   1:    0.60028 elapsed seconds
Timing for main: time 2018-01-01_01:07:00 on domain   1:    0.59192 elapsed seconds
Timing for main: time 2018-01-01_01:07:10 on domain   1:    0.60711 elapsed seconds
Timing for main: time 2018-01-01_01:07:20 on domain   1:    0.60351 elapsed seconds
Timing for main: time 2018-01-01_01:07:30 on domain   1:    0.60335 elapsed seconds
Timing for main: time 2018-01-01_01:07:40 on domain   1:    0.60460 elapsed seconds
Timing for main: time 2018-01-01_01:07:50 on domain   1:    0.60005 elapsed seconds
Timing for main: time 2018-01-01_01:08:00 on domain   1:    0.59822 elapsed seconds
Timing for main: time 2018-01-01_01:08:10 on domain   1:    0.60302 elapsed seconds
Timing for main: time 2018-01-01_01:08:20 on domain   1:    0.58952 elapsed seconds
Timing for main: time 2018-01-01_01:08:30 on domain   1:    0.60256 elapsed seconds
Timing for main: time 2018-01-01_01:08:40 on domain   1:    0.60891 elapsed seconds
Timing for main: time 2018-01-01_01:08:50 on domain   1:    0.60021 elapsed seconds
Timing for main: time 2018-01-01_01:09:00 on domain   1:    0.60181 elapsed seconds
Timing for main: time 2018-01-01_01:09:10 on domain   1:    0.59669 elapsed seconds
Timing for main: time 2018-01-01_01:09:20 on domain   1:    0.59519 elapsed seconds
Timing for main: time 2018-01-01_01:09:30 on domain   1:    0.59689 elapsed seconds
Timing for main: time 2018-01-01_01:09:40 on domain   1:    0.60563 elapsed seconds
Timing for main: time 2018-01-01_01:09:50 on domain   1:    0.60981 elapsed seconds
Timing for main: time 2018-01-01_01:10:00 on domain   1:    1.99449 elapsed seconds
Timing for main: time 2018-01-01_01:10:10 on domain   1:    0.54548 elapsed seconds
Timing for main: time 2018-01-01_01:10:20 on domain   1:    0.58569 elapsed seconds
Timing for main: time 2018-01-01_01:10:30 on domain   1:    0.58704 elapsed seconds
Timing for main: time 2018-01-01_01:10:40 on domain   1:    0.57491 elapsed seconds
Timing for main: time 2018-01-01_01:10:50 on domain   1:    0.59537 elapsed seconds
Timing for main: time 2018-01-01_01:11:00 on domain   1:    0.60005 elapsed seconds
Timing for main: time 2018-01-01_01:11:10 on domain   1:    0.58905 elapsed seconds
Timing for main: time 2018-01-01_01:11:20 on domain   1:    0.60340 elapsed seconds
Timing for main: time 2018-01-01_01:11:30 on domain   1:    0.59807 elapsed seconds
Timing for main: time 2018-01-01_01:11:40 on domain   1:    0.60539 elapsed seconds
Timing for main: time 2018-01-01_01:11:50 on domain   1:    0.59358 elapsed seconds
Timing for main: time 2018-01-01_01:12:00 on domain   1:    0.60435 elapsed seconds
Timing for main: time 2018-01-01_01:12:10 on domain   1:    0.59358 elapsed seconds
Timing for main: time 2018-01-01_01:12:20 on domain   1:    0.60109 elapsed seconds
Timing for main: time 2018-01-01_01:12:30 on domain   1:    0.60167 elapsed seconds
Timing for main: time 2018-01-01_01:12:40 on domain   1:    0.59446 elapsed seconds
Timing for main: time 2018-01-01_01:12:50 on domain   1:    0.59823 elapsed seconds
Timing for main: time 2018-01-01_01:13:00 on domain   1:    0.60037 elapsed seconds
Timing for main: time 2018-01-01_01:13:10 on domain   1:    0.59883 elapsed seconds
Timing for main: time 2018-01-01_01:13:20 on domain   1:    0.60005 elapsed seconds
Timing for main: time 2018-01-01_01:13:30 on domain   1:    0.60621 elapsed seconds
Timing for main: time 2018-01-01_01:13:40 on domain   1:    0.59548 elapsed seconds
Timing for main: time 2018-01-01_01:13:50 on domain   1:    0.60189 elapsed seconds
Timing for main: time 2018-01-01_01:14:00 on domain   1:    0.59485 elapsed seconds
Timing for main: time 2018-01-01_01:14:10 on domain   1:    0.59831 elapsed seconds
Timing for main: time 2018-01-01_01:14:20 on domain   1:    0.60222 elapsed seconds
Timing for main: time 2018-01-01_01:14:30 on domain   1:    0.59595 elapsed seconds
Timing for main: time 2018-01-01_01:14:40 on domain   1:    0.59623 elapsed seconds
Timing for main: time 2018-01-01_01:14:50 on domain   1:    0.60158 elapsed seconds
Timing for main: time 2018-01-01_01:15:00 on domain   1:    2.00686 elapsed seconds
Timing for main: time 2018-01-01_01:15:10 on domain   1:    0.60136 elapsed seconds
Timing for main: time 2018-01-01_01:15:20 on domain   1:    0.57777 elapsed seconds
Timing for main: time 2018-01-01_01:15:30 on domain   1:    0.60053 elapsed seconds
Timing for main: time 2018-01-01_01:15:40 on domain   1:    0.59097 elapsed seconds
Timing for main: time 2018-01-01_01:15:50 on domain   1:    0.59103 elapsed seconds
Timing for main: time 2018-01-01_01:16:00 on domain   1:    0.61203 elapsed seconds
Timing for main: time 2018-01-01_01:16:10 on domain   1:    0.60134 elapsed seconds
Timing for main: time 2018-01-01_01:16:20 on domain   1:    0.59446 elapsed seconds
Timing for main: time 2018-01-01_01:16:30 on domain   1:    0.59777 elapsed seconds
Timing for main: time 2018-01-01_01:16:40 on domain   1:    0.61468 elapsed seconds
Timing for main: time 2018-01-01_01:16:50 on domain   1:    0.58559 elapsed seconds
Timing for main: time 2018-01-01_01:17:00 on domain   1:    0.59944 elapsed seconds
Timing for main: time 2018-01-01_01:17:10 on domain   1:    0.59688 elapsed seconds
Timing for main: time 2018-01-01_01:17:20 on domain   1:    0.59969 elapsed seconds
Timing for main: time 2018-01-01_01:17:30 on domain   1:    0.60128 elapsed seconds
Timing for main: time 2018-01-01_01:17:40 on domain   1:    0.59927 elapsed seconds
Timing for main: time 2018-01-01_01:17:50 on domain   1:    0.60432 elapsed seconds
Timing for main: time 2018-01-01_01:18:00 on domain   1:    0.59226 elapsed seconds
Timing for main: time 2018-01-01_01:18:10 on domain   1:    0.59978 elapsed seconds
Timing for main: time 2018-01-01_01:18:20 on domain   1:    0.61009 elapsed seconds
Timing for main: time 2018-01-01_01:18:30 on domain   1:    0.59159 elapsed seconds
Timing for main: time 2018-01-01_01:18:40 on domain   1:    0.60083 elapsed seconds
Timing for main: time 2018-01-01_01:18:50 on domain   1:    0.59825 elapsed seconds
Timing for main: time 2018-01-01_01:19:00 on domain   1:    0.59521 elapsed seconds
Timing for main: time 2018-01-01_01:19:10 on domain   1:    0.60259 elapsed seconds
Timing for main: time 2018-01-01_01:19:20 on domain   1:    0.59092 elapsed seconds
Timing for main: time 2018-01-01_01:19:30 on domain   1:    0.59198 elapsed seconds
Timing for main: time 2018-01-01_01:19:40 on domain   1:    0.61782 elapsed seconds
Timing for main: time 2018-01-01_01:19:50 on domain   1:    0.59598 elapsed seconds
Timing for main: time 2018-01-01_01:20:00 on domain   1:    1.99876 elapsed seconds
Timing for main: time 2018-01-01_01:20:10 on domain   1:    0.50911 elapsed seconds
Timing for main: time 2018-01-01_01:20:20 on domain   1:    0.57672 elapsed seconds
Timing for main: time 2018-01-01_01:20:30 on domain   1:    0.57976 elapsed seconds
Timing for main: time 2018-01-01_01:20:40 on domain   1:    0.60770 elapsed seconds
Timing for main: time 2018-01-01_01:20:50 on domain   1:    0.59581 elapsed seconds
Timing for main: time 2018-01-01_01:21:00 on domain   1:    0.60246 elapsed seconds
Timing for main: time 2018-01-01_01:21:10 on domain   1:    0.60692 elapsed seconds
Timing for main: time 2018-01-01_01:21:20 on domain   1:    0.60001 elapsed seconds
Timing for main: time 2018-01-01_01:21:30 on domain   1:    0.59272 elapsed seconds
Timing for main: time 2018-01-01_01:21:40 on domain   1:    0.59812 elapsed seconds
Timing for main: time 2018-01-01_01:21:50 on domain   1:    0.60215 elapsed seconds
Timing for main: time 2018-01-01_01:22:00 on domain   1:    0.59798 elapsed seconds
Timing for main: time 2018-01-01_01:22:10 on domain   1:    0.60484 elapsed seconds
Timing for main: time 2018-01-01_01:22:20 on domain   1:    0.60571 elapsed seconds
Timing for main: time 2018-01-01_01:22:30 on domain   1:    0.59191 elapsed seconds
Timing for main: time 2018-01-01_01:22:40 on domain   1:    0.60423 elapsed seconds
Timing for main: time 2018-01-01_01:22:50 on domain   1:    0.60468 elapsed seconds
Timing for main: time 2018-01-01_01:23:00 on domain   1:    0.60464 elapsed seconds
Timing for main: time 2018-01-01_01:23:10 on domain   1:    0.60346 elapsed seconds
Timing for main: time 2018-01-01_01:23:20 on domain   1:    0.60219 elapsed seconds
Timing for main: time 2018-01-01_01:23:30 on domain   1:    0.59941 elapsed seconds
Timing for main: time 2018-01-01_01:23:40 on domain   1:    0.58432 elapsed seconds
Timing for main: time 2018-01-01_01:23:50 on domain   1:    0.62043 elapsed seconds
Timing for main: time 2018-01-01_01:24:00 on domain   1:    0.60258 elapsed seconds
Timing for main: time 2018-01-01_01:24:10 on domain   1:    0.59910 elapsed seconds
Timing for main: time 2018-01-01_01:24:20 on domain   1:    0.59723 elapsed seconds
Timing for main: time 2018-01-01_01:24:30 on domain   1:    0.60145 elapsed seconds
Timing for main: time 2018-01-01_01:24:40 on domain   1:    0.60625 elapsed seconds
Timing for main: time 2018-01-01_01:24:50 on domain   1:    0.60017 elapsed seconds
Timing for main: time 2018-01-01_01:25:00 on domain   1:    2.00423 elapsed seconds
Timing for main: time 2018-01-01_01:25:10 on domain   1:    0.49705 elapsed seconds
Timing for main: time 2018-01-01_01:25:20 on domain   1:    0.57597 elapsed seconds
Timing for main: time 2018-01-01_01:25:30 on domain   1:    0.60153 elapsed seconds
Timing for main: time 2018-01-01_01:25:40 on domain   1:    0.55433 elapsed seconds
Timing for main: time 2018-01-01_01:25:50 on domain   1:    0.61409 elapsed seconds
Timing for main: time 2018-01-01_01:26:00 on domain   1:    0.60191 elapsed seconds
Timing for main: time 2018-01-01_01:26:10 on domain   1:    0.58539 elapsed seconds
Timing for main: time 2018-01-01_01:26:20 on domain   1:    0.61482 elapsed seconds
Timing for main: time 2018-01-01_01:26:30 on domain   1:    0.59928 elapsed seconds
Timing for main: time 2018-01-01_01:26:40 on domain   1:    0.60788 elapsed seconds
Timing for main: time 2018-01-01_01:26:50 on domain   1:    0.58454 elapsed seconds
Timing for main: time 2018-01-01_01:27:00 on domain   1:    0.60891 elapsed seconds
Timing for main: time 2018-01-01_01:27:10 on domain   1:    0.60411 elapsed seconds
Timing for main: time 2018-01-01_01:27:20 on domain   1:    0.59844 elapsed seconds
Timing for main: time 2018-01-01_01:27:30 on domain   1:    0.59893 elapsed seconds
Timing for main: time 2018-01-01_01:27:40 on domain   1:    0.59373 elapsed seconds
Timing for main: time 2018-01-01_01:27:50 on domain   1:    0.60048 elapsed seconds
Timing for main: time 2018-01-01_01:28:00 on domain   1:    0.61619 elapsed seconds
Timing for main: time 2018-01-01_01:28:10 on domain   1:    0.59500 elapsed seconds
Timing for main: time 2018-01-01_01:28:20 on domain   1:    0.59407 elapsed seconds
Timing for main: time 2018-01-01_01:28:30 on domain   1:    0.59300 elapsed seconds
Timing for main: time 2018-01-01_01:28:40 on domain   1:    0.59924 elapsed seconds
Timing for main: time 2018-01-01_01:28:50 on domain   1:    0.59801 elapsed seconds
Timing for main: time 2018-01-01_01:29:00 on domain   1:    0.60961 elapsed seconds
Timing for main: time 2018-01-01_01:29:10 on domain   1:    0.60703 elapsed seconds
Timing for main: time 2018-01-01_01:29:20 on domain   1:    0.60414 elapsed seconds
Timing for main: time 2018-01-01_01:29:30 on domain   1:    0.60804 elapsed seconds
Timing for main: time 2018-01-01_01:29:40 on domain   1:    0.60371 elapsed seconds
Timing for main: time 2018-01-01_01:29:50 on domain   1:    0.59927 elapsed seconds
Timing for main: time 2018-01-01_01:30:00 on domain   1:    2.00867 elapsed seconds
Timing for main: time 2018-01-01_01:30:10 on domain   1:    0.52418 elapsed seconds
Timing for main: time 2018-01-01_01:30:20 on domain   1:    0.58728 elapsed seconds
Timing for main: time 2018-01-01_01:30:30 on domain   1:    0.56361 elapsed seconds
Timing for main: time 2018-01-01_01:30:40 on domain   1:    0.59162 elapsed seconds
Timing for main: time 2018-01-01_01:30:50 on domain   1:    0.61510 elapsed seconds
Timing for main: time 2018-01-01_01:31:00 on domain   1:    0.59359 elapsed seconds
Timing for main: time 2018-01-01_01:31:10 on domain   1:    0.59968 elapsed seconds
Timing for main: time 2018-01-01_01:31:20 on domain   1:    0.61024 elapsed seconds
Timing for main: time 2018-01-01_01:31:30 on domain   1:    0.59686 elapsed seconds
Timing for main: time 2018-01-01_01:31:40 on domain   1:    0.60420 elapsed seconds
Timing for main: time 2018-01-01_01:31:50 on domain   1:    0.60022 elapsed seconds
Timing for main: time 2018-01-01_01:32:00 on domain   1:    0.60903 elapsed seconds
Timing for main: time 2018-01-01_01:32:10 on domain   1:    0.59847 elapsed seconds
Timing for main: time 2018-01-01_01:32:20 on domain   1:    0.59643 elapsed seconds
Timing for main: time 2018-01-01_01:32:30 on domain   1:    0.60797 elapsed seconds
Timing for main: time 2018-01-01_01:32:40 on domain   1:    0.60073 elapsed seconds
Timing for main: time 2018-01-01_01:32:50 on domain   1:    0.58361 elapsed seconds
Timing for main: time 2018-01-01_01:33:00 on domain   1:    0.62099 elapsed seconds
Timing for main: time 2018-01-01_01:33:10 on domain   1:    0.60462 elapsed seconds
Timing for main: time 2018-01-01_01:33:20 on domain   1:    0.59641 elapsed seconds
Timing for main: time 2018-01-01_01:33:30 on domain   1:    0.59367 elapsed seconds
Timing for main: time 2018-01-01_01:33:40 on domain   1:    0.60091 elapsed seconds
Timing for main: time 2018-01-01_01:33:50 on domain   1:    0.60277 elapsed seconds
Timing for main: time 2018-01-01_01:34:00 on domain   1:    0.60110 elapsed seconds
Timing for main: time 2018-01-01_01:34:10 on domain   1:    0.60028 elapsed seconds
Timing for main: time 2018-01-01_01:34:20 on domain   1:    0.60233 elapsed seconds
Timing for main: time 2018-01-01_01:34:30 on domain   1:    0.60773 elapsed seconds
Timing for main: time 2018-01-01_01:34:40 on domain   1:    0.60581 elapsed seconds
Timing for main: time 2018-01-01_01:34:50 on domain   1:    0.60223 elapsed seconds
Timing for main: time 2018-01-01_01:35:00 on domain   1:    1.98906 elapsed seconds
Timing for main: time 2018-01-01_01:35:10 on domain   1:    0.65991 elapsed seconds
Timing for main: time 2018-01-01_01:35:20 on domain   1:    0.58356 elapsed seconds
Timing for main: time 2018-01-01_01:35:30 on domain   1:    0.58306 elapsed seconds
Timing for main: time 2018-01-01_01:35:40 on domain   1:    0.56632 elapsed seconds
Timing for main: time 2018-01-01_01:35:50 on domain   1:    0.54400 elapsed seconds
Timing for main: time 2018-01-01_01:36:00 on domain   1:    0.67459 elapsed seconds
Timing for main: time 2018-01-01_01:36:10 on domain   1:    0.60080 elapsed seconds
Timing for main: time 2018-01-01_01:36:20 on domain   1:    0.60188 elapsed seconds
Timing for main: time 2018-01-01_01:36:30 on domain   1:    0.59956 elapsed seconds
Timing for main: time 2018-01-01_01:36:40 on domain   1:    0.60548 elapsed seconds
Timing for main: time 2018-01-01_01:36:50 on domain   1:    0.59289 elapsed seconds
Timing for main: time 2018-01-01_01:37:00 on domain   1:    0.60132 elapsed seconds
Timing for main: time 2018-01-01_01:37:10 on domain   1:    0.60513 elapsed seconds
Timing for main: time 2018-01-01_01:37:20 on domain   1:    0.59872 elapsed seconds
Timing for main: time 2018-01-01_01:37:30 on domain   1:    0.60923 elapsed seconds
Timing for main: time 2018-01-01_01:37:40 on domain   1:    0.60024 elapsed seconds
Timing for main: time 2018-01-01_01:37:50 on domain   1:    0.60426 elapsed seconds
Timing for main: time 2018-01-01_01:38:00 on domain   1:    0.59384 elapsed seconds
Timing for main: time 2018-01-01_01:38:10 on domain   1:    0.61190 elapsed seconds
Timing for main: time 2018-01-01_01:38:20 on domain   1:    0.60149 elapsed seconds
Timing for main: time 2018-01-01_01:38:30 on domain   1:    0.59108 elapsed seconds
Timing for main: time 2018-01-01_01:38:40 on domain   1:    0.60070 elapsed seconds
Timing for main: time 2018-01-01_01:38:50 on domain   1:    0.60570 elapsed seconds
Timing for main: time 2018-01-01_01:39:00 on domain   1:    0.60355 elapsed seconds
Timing for main: time 2018-01-01_01:39:10 on domain   1:    0.60471 elapsed seconds
Timing for main: time 2018-01-01_01:39:20 on domain   1:    0.59836 elapsed seconds
Timing for main: time 2018-01-01_01:39:30 on domain   1:    0.59279 elapsed seconds
Timing for main: time 2018-01-01_01:39:40 on domain   1:    0.60516 elapsed seconds
Timing for main: time 2018-01-01_01:39:50 on domain   1:    0.60714 elapsed seconds
Timing for main: time 2018-01-01_01:40:00 on domain   1:    1.96309 elapsed seconds
Timing for main: time 2018-01-01_01:40:10 on domain   1:    0.48529 elapsed seconds
Timing for main: time 2018-01-01_01:40:20 on domain   1:    0.57457 elapsed seconds
Timing for main: time 2018-01-01_01:40:30 on domain   1:    0.58211 elapsed seconds
Timing for main: time 2018-01-01_01:40:40 on domain   1:    0.57555 elapsed seconds
Timing for main: time 2018-01-01_01:40:50 on domain   1:    0.58928 elapsed seconds
Timing for main: time 2018-01-01_01:41:00 on domain   1:    0.60527 elapsed seconds
Timing for main: time 2018-01-01_01:41:10 on domain   1:    0.59213 elapsed seconds
Timing for main: time 2018-01-01_01:41:20 on domain   1:    0.60095 elapsed seconds
Timing for main: time 2018-01-01_01:41:30 on domain   1:    0.59779 elapsed seconds
Timing for main: time 2018-01-01_01:41:40 on domain   1:    0.59445 elapsed seconds
Timing for main: time 2018-01-01_01:41:50 on domain   1:    0.60084 elapsed seconds
Timing for main: time 2018-01-01_01:42:00 on domain   1:    0.61205 elapsed seconds
Timing for main: time 2018-01-01_01:42:10 on domain   1:    0.59831 elapsed seconds
Timing for main: time 2018-01-01_01:42:20 on domain   1:    0.59722 elapsed seconds
Timing for main: time 2018-01-01_01:42:30 on domain   1:    0.60182 elapsed seconds
Timing for main: time 2018-01-01_01:42:40 on domain   1:    0.59988 elapsed seconds
Timing for main: time 2018-01-01_01:42:50 on domain   1:    0.60080 elapsed seconds
Timing for main: time 2018-01-01_01:43:00 on domain   1:    0.59360 elapsed seconds
Timing for main: time 2018-01-01_01:43:10 on domain   1:    0.60082 elapsed seconds
Timing for main: time 2018-01-01_01:43:20 on domain   1:    0.60625 elapsed seconds
Timing for main: time 2018-01-01_01:43:30 on domain   1:    0.60070 elapsed seconds
Timing for main: time 2018-01-01_01:43:40 on domain   1:    0.60458 elapsed seconds
Timing for main: time 2018-01-01_01:43:50 on domain   1:    0.58296 elapsed seconds
Timing for main: time 2018-01-01_01:44:00 on domain   1:    0.61843 elapsed seconds
Timing for main: time 2018-01-01_01:44:10 on domain   1:    0.59930 elapsed seconds
Timing for main: time 2018-01-01_01:44:20 on domain   1:    0.60671 elapsed seconds
Timing for main: time 2018-01-01_01:44:30 on domain   1:    0.59263 elapsed seconds
Timing for main: time 2018-01-01_01:44:40 on domain   1:    0.59404 elapsed seconds
Timing for main: time 2018-01-01_01:44:50 on domain   1:    0.60159 elapsed seconds
Timing for main: time 2018-01-01_01:45:00 on domain   1:    1.91050 elapsed seconds
Timing for main: time 2018-01-01_01:45:10 on domain   1:    0.57816 elapsed seconds
Timing for main: time 2018-01-01_01:45:20 on domain   1:    0.58180 elapsed seconds
Timing for main: time 2018-01-01_01:45:30 on domain   1:    0.58113 elapsed seconds
Timing for main: time 2018-01-01_01:45:40 on domain   1:    0.59914 elapsed seconds
Timing for main: time 2018-01-01_01:45:50 on domain   1:    0.60096 elapsed seconds
Timing for main: time 2018-01-01_01:46:00 on domain   1:    0.60041 elapsed seconds
Timing for main: time 2018-01-01_01:46:10 on domain   1:    0.60159 elapsed seconds
Timing for main: time 2018-01-01_01:46:20 on domain   1:    0.59613 elapsed seconds
Timing for main: time 2018-01-01_01:46:30 on domain   1:    0.59666 elapsed seconds
Timing for main: time 2018-01-01_01:46:40 on domain   1:    0.59772 elapsed seconds
Timing for main: time 2018-01-01_01:46:50 on domain   1:    0.59402 elapsed seconds
Timing for main: time 2018-01-01_01:47:00 on domain   1:    0.60303 elapsed seconds
Timing for main: time 2018-01-01_01:47:10 on domain   1:    0.60334 elapsed seconds
Timing for main: time 2018-01-01_01:47:20 on domain   1:    0.59777 elapsed seconds
Timing for main: time 2018-01-01_01:47:30 on domain   1:    0.60396 elapsed seconds
Timing for main: time 2018-01-01_01:47:40 on domain   1:    0.60192 elapsed seconds
Timing for main: time 2018-01-01_01:47:50 on domain   1:    0.60519 elapsed seconds
Timing for main: time 2018-01-01_01:48:00 on domain   1:    0.60237 elapsed seconds
Timing for main: time 2018-01-01_01:48:10 on domain   1:    0.60311 elapsed seconds
Timing for main: time 2018-01-01_01:48:20 on domain   1:    0.59645 elapsed seconds
Timing for main: time 2018-01-01_01:48:30 on domain   1:    0.60258 elapsed seconds
Timing for main: time 2018-01-01_01:48:40 on domain   1:    0.59250 elapsed seconds
Timing for main: time 2018-01-01_01:48:50 on domain   1:    0.59818 elapsed seconds
Timing for main: time 2018-01-01_01:49:00 on domain   1:    0.60565 elapsed seconds
Timing for main: time 2018-01-01_01:49:10 on domain   1:    0.59261 elapsed seconds
Timing for main: time 2018-01-01_01:49:20 on domain   1:    0.59919 elapsed seconds
Timing for main: time 2018-01-01_01:49:30 on domain   1:    0.60033 elapsed seconds
Timing for main: time 2018-01-01_01:49:40 on domain   1:    0.59285 elapsed seconds
Timing for main: time 2018-01-01_01:49:50 on domain   1:    0.61008 elapsed seconds
Timing for main: time 2018-01-01_01:50:00 on domain   1:    1.93545 elapsed seconds
Timing for main: time 2018-01-01_01:50:10 on domain   1:    0.48294 elapsed seconds
Timing for main: time 2018-01-01_01:50:20 on domain   1:    0.70947 elapsed seconds
Timing for main: time 2018-01-01_01:50:30 on domain   1:    0.56871 elapsed seconds
Timing for main: time 2018-01-01_01:50:40 on domain   1:    0.61116 elapsed seconds
Timing for main: time 2018-01-01_01:50:50 on domain   1:    0.59261 elapsed seconds
Timing for main: time 2018-01-01_01:51:00 on domain   1:    0.60473 elapsed seconds
Timing for main: time 2018-01-01_01:51:10 on domain   1:    0.59197 elapsed seconds
Timing for main: time 2018-01-01_01:51:20 on domain   1:    0.60639 elapsed seconds
Timing for main: time 2018-01-01_01:51:30 on domain   1:    0.59976 elapsed seconds
Timing for main: time 2018-01-01_01:51:40 on domain   1:    0.61406 elapsed seconds
Timing for main: time 2018-01-01_01:51:50 on domain   1:    0.58655 elapsed seconds
Timing for main: time 2018-01-01_01:52:00 on domain   1:    0.60477 elapsed seconds
Timing for main: time 2018-01-01_01:52:10 on domain   1:    0.60156 elapsed seconds
Timing for main: time 2018-01-01_01:52:20 on domain   1:    0.59450 elapsed seconds
Timing for main: time 2018-01-01_01:52:30 on domain   1:    0.61914 elapsed seconds
Timing for main: time 2018-01-01_01:52:40 on domain   1:    0.59876 elapsed seconds
Timing for main: time 2018-01-01_01:52:50 on domain   1:    0.60221 elapsed seconds
Timing for main: time 2018-01-01_01:53:00 on domain   1:    0.61039 elapsed seconds
Timing for main: time 2018-01-01_01:53:10 on domain   1:    0.59772 elapsed seconds
Timing for main: time 2018-01-01_01:53:20 on domain   1:    0.60755 elapsed seconds
Timing for main: time 2018-01-01_01:53:30 on domain   1:    0.60208 elapsed seconds
Timing for main: time 2018-01-01_01:53:40 on domain   1:    0.60875 elapsed seconds
Timing for main: time 2018-01-01_01:53:50 on domain   1:    0.60259 elapsed seconds
Timing for main: time 2018-01-01_01:54:00 on domain   1:    0.60654 elapsed seconds
Timing for main: time 2018-01-01_01:54:10 on domain   1:    0.60469 elapsed seconds
Timing for main: time 2018-01-01_01:54:20 on domain   1:    0.60085 elapsed seconds
Timing for main: time 2018-01-01_01:54:30 on domain   1:    0.59409 elapsed seconds
Timing for main: time 2018-01-01_01:54:40 on domain   1:    0.59839 elapsed seconds
Timing for main: time 2018-01-01_01:54:50 on domain   1:    0.60442 elapsed seconds
Timing for main: time 2018-01-01_01:55:00 on domain   1:    1.95896 elapsed seconds
Timing for main: time 2018-01-01_01:55:10 on domain   1:    0.49229 elapsed seconds
Timing for main: time 2018-01-01_01:55:20 on domain   1:    0.58455 elapsed seconds
Timing for main: time 2018-01-01_01:55:30 on domain   1:    0.58457 elapsed seconds
Timing for main: time 2018-01-01_01:55:40 on domain   1:    0.59697 elapsed seconds
Timing for main: time 2018-01-01_01:55:50 on domain   1:    0.60791 elapsed seconds
Timing for main: time 2018-01-01_01:56:00 on domain   1:    0.59459 elapsed seconds
Timing for main: time 2018-01-01_01:56:10 on domain   1:    0.60276 elapsed seconds
Timing for main: time 2018-01-01_01:56:20 on domain   1:    0.59481 elapsed seconds
Timing for main: time 2018-01-01_01:56:30 on domain   1:    0.59760 elapsed seconds
Timing for main: time 2018-01-01_01:56:40 on domain   1:    0.60103 elapsed seconds
Timing for main: time 2018-01-01_01:56:50 on domain   1:    0.61171 elapsed seconds
Timing for main: time 2018-01-01_01:57:00 on domain   1:    0.60225 elapsed seconds
Timing for main: time 2018-01-01_01:57:10 on domain   1:    0.59670 elapsed seconds
Timing for main: time 2018-01-01_01:57:20 on domain   1:    0.60724 elapsed seconds
Timing for main: time 2018-01-01_01:57:30 on domain   1:    0.60426 elapsed seconds
Timing for main: time 2018-01-01_01:57:40 on domain   1:    0.60050 elapsed seconds
Timing for main: time 2018-01-01_01:57:50 on domain   1:    0.60579 elapsed seconds
Timing for main: time 2018-01-01_01:58:00 on domain   1:    0.60769 elapsed seconds
Timing for main: time 2018-01-01_01:58:10 on domain   1:    0.59600 elapsed seconds
Timing for main: time 2018-01-01_01:58:20 on domain   1:    0.59181 elapsed seconds
Timing for main: time 2018-01-01_01:58:30 on domain   1:    0.61802 elapsed seconds
Timing for main: time 2018-01-01_01:58:40 on domain   1:    0.59802 elapsed seconds
Timing for main: time 2018-01-01_01:58:50 on domain   1:    0.60639 elapsed seconds
Timing for main: time 2018-01-01_01:59:00 on domain   1:    0.60778 elapsed seconds
Timing for main: time 2018-01-01_01:59:10 on domain   1:    0.60320 elapsed seconds
Timing for main: time 2018-01-01_01:59:20 on domain   1:    0.60090 elapsed seconds
Timing for main: time 2018-01-01_01:59:30 on domain   1:    0.60616 elapsed seconds
Timing for main: time 2018-01-01_01:59:40 on domain   1:    0.59507 elapsed seconds
Timing for main: time 2018-01-01_01:59:50 on domain   1:    0.60128 elapsed seconds
Timing for main: time 2018-01-01_02:00:00 on domain   1:    1.92870 elapsed seconds
 HOURLY EMISSIONS UPDATE TIME     7200.0       0.0
mediation_integrate: med_read_wrf_chem_emissions: Read emissions for time 2018-01-01_02:00:00
Timing for main: time 2018-01-01_02:00:10 on domain   1:    0.51683 elapsed seconds
Timing for main: time 2018-01-01_02:00:20 on domain   1:    0.59524 elapsed seconds
Timing for main: time 2018-01-01_02:00:30 on domain   1:    0.59922 elapsed seconds
Timing for main: time 2018-01-01_02:00:40 on domain   1:    0.59684 elapsed seconds
Timing for main: time 2018-01-01_02:00:50 on domain   1:    0.60263 elapsed seconds
Timing for main: time 2018-01-01_02:01:00 on domain   1:    0.60126 elapsed seconds
Timing for main: time 2018-01-01_02:01:10 on domain   1:    0.60199 elapsed seconds
Timing for main: time 2018-01-01_02:01:20 on domain   1:    0.60358 elapsed seconds
Timing for main: time 2018-01-01_02:01:30 on domain   1:    0.59318 elapsed seconds
Timing for main: time 2018-01-01_02:01:40 on domain   1:    0.58254 elapsed seconds
Timing for main: time 2018-01-01_02:01:50 on domain   1:    0.62158 elapsed seconds
Timing for main: time 2018-01-01_02:02:00 on domain   1:    0.59550 elapsed seconds
Timing for main: time 2018-01-01_02:02:10 on domain   1:    0.61229 elapsed seconds
Timing for main: time 2018-01-01_02:02:20 on domain   1:    0.59964 elapsed seconds
Timing for main: time 2018-01-01_02:02:30 on domain   1:    0.60008 elapsed seconds
Timing for main: time 2018-01-01_02:02:40 on domain   1:    0.59027 elapsed seconds
Timing for main: time 2018-01-01_02:02:50 on domain   1:    0.60722 elapsed seconds
Timing for main: time 2018-01-01_02:03:00 on domain   1:    0.59913 elapsed seconds
Timing for main: time 2018-01-01_02:03:10 on domain   1:    0.60013 elapsed seconds
Timing for main: time 2018-01-01_02:03:20 on domain   1:    0.59720 elapsed seconds
Timing for main: time 2018-01-01_02:03:30 on domain   1:    0.59548 elapsed seconds
Timing for main: time 2018-01-01_02:03:40 on domain   1:    0.60607 elapsed seconds
Timing for main: time 2018-01-01_02:03:50 on domain   1:    0.60380 elapsed seconds
Timing for main: time 2018-01-01_02:04:00 on domain   1:    0.60425 elapsed seconds
Timing for main: time 2018-01-01_02:04:10 on domain   1:    0.59018 elapsed seconds
Timing for main: time 2018-01-01_02:04:20 on domain   1:    0.61019 elapsed seconds
Timing for main: time 2018-01-01_02:04:30 on domain   1:    0.60559 elapsed seconds
Timing for main: time 2018-01-01_02:04:40 on domain   1:    0.60255 elapsed seconds
Timing for main: time 2018-01-01_02:04:50 on domain   1:    0.60378 elapsed seconds
Timing for main: time 2018-01-01_02:05:00 on domain   1:    1.84374 elapsed seconds
Timing for main: time 2018-01-01_02:05:10 on domain   1:    0.51315 elapsed seconds
Timing for main: time 2018-01-01_02:05:20 on domain   1:    0.71448 elapsed seconds
Timing for main: time 2018-01-01_02:05:30 on domain   1:    0.56640 elapsed seconds
Timing for main: time 2018-01-01_02:05:40 on domain   1:    0.61583 elapsed seconds
Timing for main: time 2018-01-01_02:05:50 on domain   1:    0.59667 elapsed seconds
Timing for main: time 2018-01-01_02:06:00 on domain   1:    0.60877 elapsed seconds
Timing for main: time 2018-01-01_02:06:10 on domain   1:    0.60281 elapsed seconds
Timing for main: time 2018-01-01_02:06:20 on domain   1:    0.58669 elapsed seconds
Timing for main: time 2018-01-01_02:06:30 on domain   1:    0.61367 elapsed seconds
Timing for main: time 2018-01-01_02:06:40 on domain   1:    0.60698 elapsed seconds
Timing for main: time 2018-01-01_02:06:50 on domain   1:    0.60684 elapsed seconds
Timing for main: time 2018-01-01_02:07:00 on domain   1:    0.60326 elapsed seconds
Timing for main: time 2018-01-01_02:07:10 on domain   1:    0.59782 elapsed seconds
Timing for main: time 2018-01-01_02:07:20 on domain   1:    0.59742 elapsed seconds
Timing for main: time 2018-01-01_02:07:30 on domain   1:    0.60298 elapsed seconds
Timing for main: time 2018-01-01_02:07:40 on domain   1:    0.60312 elapsed seconds
Timing for main: time 2018-01-01_02:07:50 on domain   1:    0.61111 elapsed seconds
Timing for main: time 2018-01-01_02:08:00 on domain   1:    0.59680 elapsed seconds
Timing for main: time 2018-01-01_02:08:10 on domain   1:    0.60189 elapsed seconds
Timing for main: time 2018-01-01_02:08:20 on domain   1:    0.59973 elapsed seconds
Timing for main: time 2018-01-01_02:08:30 on domain   1:    0.59614 elapsed seconds
Timing for main: time 2018-01-01_02:08:40 on domain   1:    0.60411 elapsed seconds
Timing for main: time 2018-01-01_02:08:50 on domain   1:    0.60525 elapsed seconds
Timing for main: time 2018-01-01_02:09:00 on domain   1:    0.59922 elapsed seconds
Timing for main: time 2018-01-01_02:09:10 on domain   1:    0.59381 elapsed seconds
Timing for main: time 2018-01-01_02:09:20 on domain   1:    0.60613 elapsed seconds
Timing for main: time 2018-01-01_02:09:30 on domain   1:    0.60172 elapsed seconds
Timing for main: time 2018-01-01_02:09:40 on domain   1:    0.61218 elapsed seconds
Timing for main: time 2018-01-01_02:09:50 on domain   1:    0.59048 elapsed seconds
Timing for main: time 2018-01-01_02:10:00 on domain   1:    1.78252 elapsed seconds
Timing for main: time 2018-01-01_02:10:10 on domain   1:    0.57363 elapsed seconds
Timing for main: time 2018-01-01_02:10:20 on domain   1:    0.57256 elapsed seconds
Timing for main: time 2018-01-01_02:10:30 on domain   1:    0.60440 elapsed seconds
Timing for main: time 2018-01-01_02:10:40 on domain   1:    0.61760 elapsed seconds
Timing for main: time 2018-01-01_02:10:50 on domain   1:    0.58995 elapsed seconds
Timing for main: time 2018-01-01_02:11:00 on domain   1:    0.59945 elapsed seconds
Timing for main: time 2018-01-01_02:11:10 on domain   1:    0.60529 elapsed seconds
Timing for main: time 2018-01-01_02:11:20 on domain   1:    0.59921 elapsed seconds
Timing for main: time 2018-01-01_02:11:30 on domain   1:    0.60279 elapsed seconds
Timing for main: time 2018-01-01_02:11:40 on domain   1:    0.61009 elapsed seconds
Timing for main: time 2018-01-01_02:11:50 on domain   1:    0.60060 elapsed seconds
Timing for main: time 2018-01-01_02:12:00 on domain   1:    0.61589 elapsed seconds
Timing for main: time 2018-01-01_02:12:10 on domain   1:    0.60255 elapsed seconds
Timing for main: time 2018-01-01_02:12:20 on domain   1:    0.59477 elapsed seconds
Timing for main: time 2018-01-01_02:12:30 on domain   1:    0.60516 elapsed seconds
Timing for main: time 2018-01-01_02:12:40 on domain   1:    0.59886 elapsed seconds
Timing for main: time 2018-01-01_02:12:50 on domain   1:    0.61315 elapsed seconds
Timing for main: time 2018-01-01_02:13:00 on domain   1:    0.60834 elapsed seconds
Timing for main: time 2018-01-01_02:13:10 on domain   1:    0.60163 elapsed seconds
Timing for main: time 2018-01-01_02:13:20 on domain   1:    0.59892 elapsed seconds
Timing for main: time 2018-01-01_02:13:30 on domain   1:    0.59798 elapsed seconds
Timing for main: time 2018-01-01_02:13:40 on domain   1:    0.60689 elapsed seconds
Timing for main: time 2018-01-01_02:13:50 on domain   1:    0.58861 elapsed seconds
Timing for main: time 2018-01-01_02:14:00 on domain   1:    0.60355 elapsed seconds
Timing for main: time 2018-01-01_02:14:10 on domain   1:    0.60004 elapsed seconds
Timing for main: time 2018-01-01_02:14:20 on domain   1:    0.59532 elapsed seconds
Timing for main: time 2018-01-01_02:14:30 on domain   1:    0.61049 elapsed seconds
Timing for main: time 2018-01-01_02:14:40 on domain   1:    0.60342 elapsed seconds
Timing for main: time 2018-01-01_02:14:50 on domain   1:    0.60319 elapsed seconds
Timing for main: time 2018-01-01_02:15:00 on domain   1:    1.80008 elapsed seconds
Timing for main: time 2018-01-01_02:15:10 on domain   1:    0.61589 elapsed seconds
Timing for main: time 2018-01-01_02:15:20 on domain   1:    0.59101 elapsed seconds
Timing for main: time 2018-01-01_02:15:30 on domain   1:    0.56152 elapsed seconds
Timing for main: time 2018-01-01_02:15:40 on domain   1:    0.57766 elapsed seconds
Timing for main: time 2018-01-01_02:15:50 on domain   1:    0.59170 elapsed seconds
Timing for main: time 2018-01-01_02:16:00 on domain   1:    0.61106 elapsed seconds
Timing for main: time 2018-01-01_02:16:10 on domain   1:    0.60700 elapsed seconds
Timing for main: time 2018-01-01_02:16:20 on domain   1:    0.59904 elapsed seconds
Timing for main: time 2018-01-01_02:16:30 on domain   1:    0.59727 elapsed seconds
Timing for main: time 2018-01-01_02:16:40 on domain   1:    0.60095 elapsed seconds
Timing for main: time 2018-01-01_02:16:50 on domain   1:    0.60084 elapsed seconds
Timing for main: time 2018-01-01_02:17:00 on domain   1:    0.59457 elapsed seconds
Timing for main: time 2018-01-01_02:17:10 on domain   1:    0.60817 elapsed seconds
Timing for main: time 2018-01-01_02:17:20 on domain   1:    0.59009 elapsed seconds
Timing for main: time 2018-01-01_02:17:30 on domain   1:    0.59606 elapsed seconds
Timing for main: time 2018-01-01_02:17:40 on domain   1:    0.60339 elapsed seconds
Timing for main: time 2018-01-01_02:17:50 on domain   1:    0.60276 elapsed seconds
Timing for main: time 2018-01-01_02:18:00 on domain   1:    0.61374 elapsed seconds
Timing for main: time 2018-01-01_02:18:10 on domain   1:    0.60357 elapsed seconds
Timing for main: time 2018-01-01_02:18:20 on domain   1:    0.60273 elapsed seconds
Timing for main: time 2018-01-01_02:18:30 on domain   1:    0.59755 elapsed seconds
Timing for main: time 2018-01-01_02:18:40 on domain   1:    0.60198 elapsed seconds
Timing for main: time 2018-01-01_02:18:50 on domain   1:    0.59020 elapsed seconds
Timing for main: time 2018-01-01_02:19:00 on domain   1:    0.60855 elapsed seconds
Timing for main: time 2018-01-01_02:19:10 on domain   1:    0.59782 elapsed seconds
Timing for main: time 2018-01-01_02:19:20 on domain   1:    0.60754 elapsed seconds
Timing for main: time 2018-01-01_02:19:30 on domain   1:    0.61069 elapsed seconds
Timing for main: time 2018-01-01_02:19:40 on domain   1:    0.59779 elapsed seconds
Timing for main: time 2018-01-01_02:19:50 on domain   1:    0.59951 elapsed seconds
Timing for main: time 2018-01-01_02:20:00 on domain   1:    1.83175 elapsed seconds
Timing for main: time 2018-01-01_02:20:10 on domain   1:    0.54406 elapsed seconds
Timing for main: time 2018-01-01_02:20:20 on domain   1:    0.57992 elapsed seconds
Timing for main: time 2018-01-01_02:20:30 on domain   1:    0.57898 elapsed seconds
Timing for main: time 2018-01-01_02:20:40 on domain   1:    0.62086 elapsed seconds
Timing for main: time 2018-01-01_02:20:50 on domain   1:    0.62853 elapsed seconds
Timing for main: time 2018-01-01_02:21:00 on domain   1:    0.59916 elapsed seconds
Timing for main: time 2018-01-01_02:21:10 on domain   1:    0.61228 elapsed seconds
Timing for main: time 2018-01-01_02:21:20 on domain   1:    0.59930 elapsed seconds
Timing for main: time 2018-01-01_02:21:30 on domain   1:    0.59591 elapsed seconds
Timing for main: time 2018-01-01_02:21:40 on domain   1:    0.60022 elapsed seconds
Timing for main: time 2018-01-01_02:21:50 on domain   1:    0.60010 elapsed seconds
Timing for main: time 2018-01-01_02:22:00 on domain   1:    0.59909 elapsed seconds
Timing for main: time 2018-01-01_02:22:10 on domain   1:    0.59957 elapsed seconds
Timing for main: time 2018-01-01_02:22:20 on domain   1:    0.59512 elapsed seconds
Timing for main: time 2018-01-01_02:22:30 on domain   1:    0.60481 elapsed seconds
Timing for main: time 2018-01-01_02:22:40 on domain   1:    0.59392 elapsed seconds
Timing for main: time 2018-01-01_02:22:50 on domain   1:    0.59274 elapsed seconds
Timing for main: time 2018-01-01_02:23:00 on domain   1:    0.60379 elapsed seconds
Timing for main: time 2018-01-01_02:23:10 on domain   1:    0.60138 elapsed seconds
Timing for main: time 2018-01-01_02:23:20 on domain   1:    0.61585 elapsed seconds
Timing for main: time 2018-01-01_02:23:30 on domain   1:    0.60291 elapsed seconds
Timing for main: time 2018-01-01_02:23:40 on domain   1:    0.60175 elapsed seconds
Timing for main: time 2018-01-01_02:23:50 on domain   1:    0.59805 elapsed seconds
Timing for main: time 2018-01-01_02:24:00 on domain   1:    0.60071 elapsed seconds
Timing for main: time 2018-01-01_02:24:10 on domain   1:    0.61220 elapsed seconds
Timing for main: time 2018-01-01_02:24:20 on domain   1:    0.60382 elapsed seconds
Timing for main: time 2018-01-01_02:24:30 on domain   1:    0.59401 elapsed seconds
Timing for main: time 2018-01-01_02:24:40 on domain   1:    0.60369 elapsed seconds
Timing for main: time 2018-01-01_02:24:50 on domain   1:    0.58999 elapsed seconds
Timing for main: time 2018-01-01_02:25:00 on domain   1:    1.82780 elapsed seconds
Timing for main: time 2018-01-01_02:25:10 on domain   1:    0.56776 elapsed seconds
Timing for main: time 2018-01-01_02:25:20 on domain   1:    0.58473 elapsed seconds
Timing for main: time 2018-01-01_02:25:30 on domain   1:    0.59859 elapsed seconds
Timing for main: time 2018-01-01_02:25:40 on domain   1:    0.60814 elapsed seconds
Timing for main: time 2018-01-01_02:25:50 on domain   1:    0.60409 elapsed seconds
Timing for main: time 2018-01-01_02:26:00 on domain   1:    0.58907 elapsed seconds
Timing for main: time 2018-01-01_02:26:10 on domain   1:    0.60876 elapsed seconds
Timing for main: time 2018-01-01_02:26:20 on domain   1:    0.59843 elapsed seconds
Timing for main: time 2018-01-01_02:26:30 on domain   1:    0.60737 elapsed seconds
Timing for main: time 2018-01-01_02:26:40 on domain   1:    0.59630 elapsed seconds
Timing for main: time 2018-01-01_02:26:50 on domain   1:    0.62008 elapsed seconds
Timing for main: time 2018-01-01_02:27:00 on domain   1:    0.58884 elapsed seconds
Timing for main: time 2018-01-01_02:27:10 on domain   1:    0.61040 elapsed seconds
Timing for main: time 2018-01-01_02:27:20 on domain   1:    0.59360 elapsed seconds
Timing for main: time 2018-01-01_02:27:30 on domain   1:    0.60608 elapsed seconds
Timing for main: time 2018-01-01_02:27:40 on domain   1:    0.59507 elapsed seconds
Timing for main: time 2018-01-01_02:27:50 on domain   1:    0.59657 elapsed seconds
Timing for main: time 2018-01-01_02:28:00 on domain   1:    0.60661 elapsed seconds
Timing for main: time 2018-01-01_02:28:10 on domain   1:    0.59116 elapsed seconds
Timing for main: time 2018-01-01_02:28:20 on domain   1:    0.59729 elapsed seconds
Timing for main: time 2018-01-01_02:28:30 on domain   1:    0.60735 elapsed seconds
Timing for main: time 2018-01-01_02:28:40 on domain   1:    0.59231 elapsed seconds
Timing for main: time 2018-01-01_02:28:50 on domain   1:    0.60592 elapsed seconds
Timing for main: time 2018-01-01_02:29:00 on domain   1:    0.59977 elapsed seconds
Timing for main: time 2018-01-01_02:29:10 on domain   1:    0.60476 elapsed seconds
Timing for main: time 2018-01-01_02:29:20 on domain   1:    0.60315 elapsed seconds
Timing for main: time 2018-01-01_02:29:30 on domain   1:    0.60792 elapsed seconds
Timing for main: time 2018-01-01_02:29:40 on domain   1:    0.60372 elapsed seconds
Timing for main: time 2018-01-01_02:29:50 on domain   1:    0.60145 elapsed seconds
Timing for main: time 2018-01-01_02:30:00 on domain   1:    1.80236 elapsed seconds
Timing for main: time 2018-01-01_02:30:10 on domain   1:    0.63486 elapsed seconds
Timing for main: time 2018-01-01_02:30:20 on domain   1:    0.57852 elapsed seconds
[...]
Timing for main: time 2018-01-01_11:21:10 on domain   1:    0.61626 elapsed seconds
Timing for main: time 2018-01-01_11:21:20 on domain   1:    0.60371 elapsed seconds
Timing for main: time 2018-01-01_11:21:30 on domain   1:    0.59987 elapsed seconds
Timing for main: time 2018-01-01_11:21:40 on domain   1:    0.60198 elapsed seconds
Timing for main: time 2018-01-01_11:21:50 on domain   1:    0.59739 elapsed seconds
Timing for main: time 2018-01-01_11:22:00 on domain   1:    0.60705 elapsed seconds
Timing for main: time 2018-01-01_11:22:10 on domain   1:    0.60246 elapsed seconds
Timing for main: time 2018-01-01_11:22:20 on domain   1:    0.57936 elapsed seconds
Timing for main: time 2018-01-01_11:22:30 on domain   1:    0.62201 elapsed seconds
Timing for main: time 2018-01-01_11:22:40 on domain   1:    0.61766 elapsed seconds
Timing for main: time 2018-01-01_11:22:50 on domain   1:    0.59610 elapsed seconds
Timing for main: time 2018-01-01_11:23:00 on domain   1:    0.61414 elapsed seconds
Timing for main: time 2018-01-01_11:23:10 on domain   1:    0.60049 elapsed seconds
Timing for main: time 2018-01-01_11:23:20 on domain   1:    0.59658 elapsed seconds
Timing for main: time 2018-01-01_11:23:30 on domain   1:    0.60423 elapsed seconds
Timing for main: time 2018-01-01_11:23:40 on domain   1:    0.57553 elapsed seconds
Timing for main: time 2018-01-01_11:23:50 on domain   1:    0.63133 elapsed seconds
Timing for main: time 2018-01-01_11:24:00 on domain   1:    0.60286 elapsed seconds
Timing for main: time 2018-01-01_11:24:10 on domain   1:    0.57864 elapsed seconds
Timing for main: time 2018-01-01_11:24:20 on domain   1:    0.58037 elapsed seconds
Timing for main: time 2018-01-01_11:24:30 on domain   1:    0.63712 elapsed seconds
Timing for main: time 2018-01-01_11:24:40 on domain   1:    0.60286 elapsed seconds
Timing for main: time 2018-01-01_11:24:50 on domain   1:    0.59937 elapsed seconds
Timing for main: time 2018-01-01_11:25:00 on domain   1:    1.82151 elapsed seconds
Timing for main: time 2018-01-01_11:25:10 on domain   1:    0.50363 elapsed seconds
Timing for main: time 2018-01-01_11:25:20 on domain   1:    0.85157 elapsed seconds
Timing for main: time 2018-01-01_11:25:30 on domain   1:    0.54917 elapsed seconds
Timing for main: time 2018-01-01_11:25:40 on domain   1:    0.68692 elapsed seconds
Timing for main: time 2018-01-01_11:25:50 on domain   1:    0.60295 elapsed seconds
Timing for main: time 2018-01-01_11:26:00 on domain   1:    0.60105 elapsed seconds
Timing for main: time 2018-01-01_11:26:10 on domain   1:    0.61286 elapsed seconds
Timing for main: time 2018-01-01_11:26:20 on domain   1:    0.60010 elapsed seconds
Timing for main: time 2018-01-01_11:26:30 on domain   1:    0.58181 elapsed seconds
Timing for main: time 2018-01-01_11:26:40 on domain   1:    0.63214 elapsed seconds
Timing for main: time 2018-01-01_11:26:50 on domain   1:    0.60705 elapsed seconds
Timing for main: time 2018-01-01_11:27:00 on domain   1:    0.59360 elapsed seconds
Timing for main: time 2018-01-01_11:27:10 on domain   1:    0.61325 elapsed seconds
Timing for main: time 2018-01-01_11:27:20 on domain   1:    0.59668 elapsed seconds
Timing for main: time 2018-01-01_11:27:30 on domain   1:    0.60216 elapsed seconds
Timing for main: time 2018-01-01_11:27:40 on domain   1:    0.59040 elapsed seconds
Timing for main: time 2018-01-01_11:27:50 on domain   1:    0.62060 elapsed seconds
Timing for main: time 2018-01-01_11:28:00 on domain   1:    0.59254 elapsed seconds
Timing for main: time 2018-01-01_11:28:10 on domain   1:    0.61104 elapsed seconds
Timing for main: time 2018-01-01_11:28:20 on domain   1:    0.59836 elapsed seconds
Timing for main: time 2018-01-01_11:28:30 on domain   1:    0.60263 elapsed seconds
Timing for main: time 2018-01-01_11:28:40 on domain   1:    0.60108 elapsed seconds
Timing for main: time 2018-01-01_11:28:50 on domain   1:    0.60385 elapsed seconds
Timing for main: time 2018-01-01_11:29:00 on domain   1:    0.59837 elapsed seconds
Timing for main: time 2018-01-01_11:29:10 on domain   1:    0.59725 elapsed seconds
Timing for main: time 2018-01-01_11:29:20 on domain   1:    0.61091 elapsed seconds
Timing for main: time 2018-01-01_11:29:30 on domain   1:    0.58999 elapsed seconds
Timing for main: time 2018-01-01_11:29:40 on domain   1:    0.60226 elapsed seconds
Timing for main: time 2018-01-01_11:29:50 on domain   1:    0.59480 elapsed seconds
Timing for main: time 2018-01-01_11:30:00 on domain   1:    1.80365 elapsed seconds
Timing for main: time 2018-01-01_11:30:10 on domain   1:    0.55986 elapsed seconds
Timing for main: time 2018-01-01_11:30:20 on domain   1:    0.89424 elapsed seconds
Timing for main: time 2018-01-01_11:30:30 on domain   1:    0.67549 elapsed seconds
Timing for main: time 2018-01-01_11:30:40 on domain   1:    0.63986 elapsed seconds
Timing for main: time 2018-01-01_11:30:50 on domain   1:    0.59181 elapsed seconds
Timing for main: time 2018-01-01_11:31:00 on domain   1:    0.61208 elapsed seconds
Timing for main: time 2018-01-01_11:31:10 on domain   1:    0.59969 elapsed seconds
Timing for main: time 2018-01-01_11:31:20 on domain   1:    0.57212 elapsed seconds
Timing for main: time 2018-01-01_11:31:30 on domain   1:    0.63316 elapsed seconds
Timing for main: time 2018-01-01_11:31:40 on domain   1:    0.59631 elapsed seconds
Timing for main: time 2018-01-01_11:31:50 on domain   1:    0.60603 elapsed seconds
Timing for main: time 2018-01-01_11:32:00 on domain   1:    0.60004 elapsed seconds
Timing for main: time 2018-01-01_11:32:10 on domain   1:    0.60843 elapsed seconds
Timing for main: time 2018-01-01_11:32:20 on domain   1:    0.60510 elapsed seconds
Timing for main: time 2018-01-01_11:32:30 on domain   1:    0.59682 elapsed seconds
Timing for main: time 2018-01-01_11:32:40 on domain   1:    0.60875 elapsed seconds
Timing for main: time 2018-01-01_11:32:50 on domain   1:    0.60137 elapsed seconds
Timing for main: time 2018-01-01_11:33:00 on domain   1:    0.59721 elapsed seconds
Timing for main: time 2018-01-01_11:33:10 on domain   1:    0.59857 elapsed seconds
Timing for main: time 2018-01-01_11:33:20 on domain   1:    0.60191 elapsed seconds
Timing for main: time 2018-01-01_11:33:30 on domain   1:    0.60321 elapsed seconds
Timing for main: time 2018-01-01_11:33:40 on domain   1:    0.60280 elapsed seconds
Timing for main: time 2018-01-01_11:33:50 on domain   1:    0.59789 elapsed seconds
Timing for main: time 2018-01-01_11:34:00 on domain   1:    0.60341 elapsed seconds
Timing for main: time 2018-01-01_11:34:10 on domain   1:    0.60326 elapsed seconds
Timing for main: time 2018-01-01_11:34:20 on domain   1:    0.61068 elapsed seconds
Timing for main: time 2018-01-01_11:34:30 on domain   1:    0.60714 elapsed seconds
Timing for main: time 2018-01-01_11:34:40 on domain   1:    0.59072 elapsed seconds
Timing for main: time 2018-01-01_11:34:50 on domain   1:    0.61104 elapsed seconds
Timing for main: time 2018-01-01_11:35:00 on domain   1:    1.72567 elapsed seconds
Timing for main: time 2018-01-01_11:35:10 on domain   1:    0.81690 elapsed seconds
Timing for main: time 2018-01-01_11:35:20 on domain   1:    0.82478 elapsed seconds
Timing for main: time 2018-01-01_11:35:30 on domain   1:    0.63352 elapsed seconds
Timing for main: time 2018-01-01_11:35:40 on domain   1:    0.60018 elapsed seconds
Timing for main: time 2018-01-01_11:35:50 on domain   1:    0.60637 elapsed seconds
Timing for main: time 2018-01-01_11:36:00 on domain   1:    0.59616 elapsed seconds
Timing for main: time 2018-01-01_11:36:10 on domain   1:    0.60622 elapsed seconds
Timing for main: time 2018-01-01_11:36:20 on domain   1:    0.59557 elapsed seconds
Timing for main: time 2018-01-01_11:36:30 on domain   1:    0.60667 elapsed seconds
Timing for main: time 2018-01-01_11:36:40 on domain   1:    0.60131 elapsed seconds
Timing for main: time 2018-01-01_11:36:50 on domain   1:    0.60040 elapsed seconds
Timing for main: time 2018-01-01_11:37:00 on domain   1:    0.59638 elapsed seconds
Timing for main: time 2018-01-01_11:37:10 on domain   1:    0.60733 elapsed seconds
Timing for main: time 2018-01-01_11:37:20 on domain   1:    0.57922 elapsed seconds
Timing for main: time 2018-01-01_11:37:30 on domain   1:    0.61431 elapsed seconds
Timing for main: time 2018-01-01_11:37:40 on domain   1:    0.59847 elapsed seconds
Timing for main: time 2018-01-01_11:37:50 on domain   1:    0.60280 elapsed seconds
Timing for main: time 2018-01-01_11:38:00 on domain   1:    0.60953 elapsed seconds
Timing for main: time 2018-01-01_11:38:10 on domain   1:    0.61023 elapsed seconds
Timing for main: time 2018-01-01_11:38:20 on domain   1:    0.61172 elapsed seconds
Timing for main: time 2018-01-01_11:38:30 on domain   1:    0.60267 elapsed seconds
Timing for main: time 2018-01-01_11:38:40 on domain   1:    0.59330 elapsed seconds
Timing for main: time 2018-01-01_11:38:50 on domain   1:    0.60827 elapsed seconds
Timing for main: time 2018-01-01_11:39:00 on domain   1:    0.60961 elapsed seconds
Timing for main: time 2018-01-01_11:39:10 on domain   1:    0.60017 elapsed seconds
Timing for main: time 2018-01-01_11:39:20 on domain   1:    0.59683 elapsed seconds
Timing for main: time 2018-01-01_11:39:30 on domain   1:    0.58578 elapsed seconds
Timing for main: time 2018-01-01_11:39:40 on domain   1:    0.62361 elapsed seconds
Timing for main: time 2018-01-01_11:39:50 on domain   1:    0.59821 elapsed seconds
Timing for main: time 2018-01-01_11:40:00 on domain   1:    1.82597 elapsed seconds
Timing for main: time 2018-01-01_11:40:10 on domain   1:    0.85151 elapsed seconds
Timing for main: time 2018-01-01_11:40:20 on domain   1:    0.75328 elapsed seconds
Timing for main: time 2018-01-01_11:40:30 on domain   1:    0.63341 elapsed seconds
Timing for main: time 2018-01-01_11:40:40 on domain   1:    0.61307 elapsed seconds
Timing for main: time 2018-01-01_11:40:50 on domain   1:    0.60674 elapsed seconds
Timing for main: time 2018-01-01_11:41:00 on domain   1:    0.60597 elapsed seconds
Timing for main: time 2018-01-01_11:41:10 on domain   1:    0.59695 elapsed seconds
Timing for main: time 2018-01-01_11:41:20 on domain   1:    0.59738 elapsed seconds
Timing for main: time 2018-01-01_11:41:30 on domain   1:    0.59655 elapsed seconds
Timing for main: time 2018-01-01_11:41:40 on domain   1:    0.59972 elapsed seconds
Timing for main: time 2018-01-01_11:41:50 on domain   1:    0.60252 elapsed seconds
Timing for main: time 2018-01-01_11:42:00 on domain   1:    0.60344 elapsed seconds
Timing for main: time 2018-01-01_11:42:10 on domain   1:    0.60343 elapsed seconds
Timing for main: time 2018-01-01_11:42:20 on domain   1:    0.60798 elapsed seconds
Timing for main: time 2018-01-01_11:42:30 on domain   1:    0.60297 elapsed seconds
Timing for main: time 2018-01-01_11:42:40 on domain   1:    0.60047 elapsed seconds
Timing for main: time 2018-01-01_11:42:50 on domain   1:    0.60018 elapsed seconds
Timing for main: time 2018-01-01_11:43:00 on domain   1:    0.59242 elapsed seconds
Timing for main: time 2018-01-01_11:43:10 on domain   1:    0.61379 elapsed seconds
Timing for main: time 2018-01-01_11:43:20 on domain   1:    0.60122 elapsed seconds
Timing for main: time 2018-01-01_11:43:30 on domain   1:    0.60494 elapsed seconds
Timing for main: time 2018-01-01_11:43:40 on domain   1:    0.60467 elapsed seconds
Timing for main: time 2018-01-01_11:43:50 on domain   1:    0.60281 elapsed seconds
Timing for main: time 2018-01-01_11:44:00 on domain   1:    0.59575 elapsed seconds
Timing for main: time 2018-01-01_11:44:10 on domain   1:    0.60523 elapsed seconds
Timing for main: time 2018-01-01_11:44:20 on domain   1:    0.61017 elapsed seconds
Timing for main: time 2018-01-01_11:44:30 on domain   1:    0.60407 elapsed seconds
Timing for main: time 2018-01-01_11:44:40 on domain   1:    0.60472 elapsed seconds
Timing for main: time 2018-01-01_11:44:50 on domain   1:    0.60842 elapsed seconds
Timing for main: time 2018-01-01_11:45:00 on domain   1:    1.83782 elapsed seconds
Timing for main: time 2018-01-01_11:45:10 on domain   1:    1.19058 elapsed seconds
Timing for main: time 2018-01-01_11:45:20 on domain   1:    0.62483 elapsed seconds
Timing for main: time 2018-01-01_11:45:30 on domain   1:    0.65006 elapsed seconds
Timing for main: time 2018-01-01_11:45:40 on domain   1:    0.62869 elapsed seconds
Timing for main: time 2018-01-01_11:45:50 on domain   1:    0.60279 elapsed seconds
Timing for main: time 2018-01-01_11:46:00 on domain   1:    0.59352 elapsed seconds
Timing for main: time 2018-01-01_11:46:10 on domain   1:    0.61195 elapsed seconds
Timing for main: time 2018-01-01_11:46:20 on domain   1:    0.60410 elapsed seconds
Timing for main: time 2018-01-01_11:46:30 on domain   1:    0.59326 elapsed seconds
Timing for main: time 2018-01-01_11:46:40 on domain   1:    0.60517 elapsed seconds
Timing for main: time 2018-01-01_11:46:50 on domain   1:    0.60013 elapsed seconds
Timing for main: time 2018-01-01_11:47:00 on domain   1:    0.60193 elapsed seconds
Timing for main: time 2018-01-01_11:47:10 on domain   1:    0.61035 elapsed seconds
Timing for main: time 2018-01-01_11:47:20 on domain   1:    0.60688 elapsed seconds
Timing for main: time 2018-01-01_11:47:30 on domain   1:    0.56414 elapsed seconds
Timing for main: time 2018-01-01_11:47:40 on domain   1:    0.63046 elapsed seconds
Timing for main: time 2018-01-01_11:47:50 on domain   1:    0.60467 elapsed seconds
Timing for main: time 2018-01-01_11:48:00 on domain   1:    0.57372 elapsed seconds
Timing for main: time 2018-01-01_11:48:10 on domain   1:    0.61708 elapsed seconds
Timing for main: time 2018-01-01_11:48:20 on domain   1:    0.60912 elapsed seconds
Timing for main: time 2018-01-01_11:48:30 on domain   1:    0.60836 elapsed seconds
Timing for main: time 2018-01-01_11:48:40 on domain   1:    0.60066 elapsed seconds
Timing for main: time 2018-01-01_11:48:50 on domain   1:    0.59494 elapsed seconds
Timing for main: time 2018-01-01_11:49:00 on domain   1:    0.61518 elapsed seconds
Timing for main: time 2018-01-01_11:49:10 on domain   1:    0.60521 elapsed seconds
Timing for main: time 2018-01-01_11:49:20 on domain   1:    0.59135 elapsed seconds
Timing for main: time 2018-01-01_11:49:30 on domain   1:    0.61134 elapsed seconds
Timing for main: time 2018-01-01_11:49:40 on domain   1:    0.60163 elapsed seconds
Timing for main: time 2018-01-01_11:49:50 on domain   1:    0.60946 elapsed seconds
Timing for main: time 2018-01-01_11:50:00 on domain   1:    1.81144 elapsed seconds
Timing for main: time 2018-01-01_11:50:10 on domain   1:    1.12637 elapsed seconds
Timing for main: time 2018-01-01_11:50:20 on domain   1:    0.59669 elapsed seconds
Timing for main: time 2018-01-01_11:50:30 on domain   1:    0.70354 elapsed seconds
Timing for main: time 2018-01-01_11:50:40 on domain   1:    0.60807 elapsed seconds
Timing for main: time 2018-01-01_11:50:50 on domain   1:    0.60307 elapsed seconds
Timing for main: time 2018-01-01_11:51:00 on domain   1:    0.59626 elapsed seconds
Timing for main: time 2018-01-01_11:51:10 on domain   1:    0.60513 elapsed seconds
Timing for main: time 2018-01-01_11:51:20 on domain   1:    0.59973 elapsed seconds
Timing for main: time 2018-01-01_11:51:30 on domain   1:    0.59736 elapsed seconds
Timing for main: time 2018-01-01_11:51:40 on domain   1:    0.57730 elapsed seconds
Timing for main: time 2018-01-01_11:51:50 on domain   1:    0.61277 elapsed seconds
Timing for main: time 2018-01-01_11:52:00 on domain   1:    0.62092 elapsed seconds
Timing for main: time 2018-01-01_11:52:10 on domain   1:    0.60010 elapsed seconds
Timing for main: time 2018-01-01_11:52:20 on domain   1:    0.60372 elapsed seconds
Timing for main: time 2018-01-01_11:52:30 on domain   1:    0.59804 elapsed seconds
Timing for main: time 2018-01-01_11:52:40 on domain   1:    0.58493 elapsed seconds
Timing for main: time 2018-01-01_11:52:50 on domain   1:    0.61877 elapsed seconds
Timing for main: time 2018-01-01_11:53:00 on domain   1:    0.59873 elapsed seconds
Timing for main: time 2018-01-01_11:53:10 on domain   1:    0.60066 elapsed seconds
Timing for main: time 2018-01-01_11:53:20 on domain   1:    0.61091 elapsed seconds
Timing for main: time 2018-01-01_11:53:30 on domain   1:    0.60080 elapsed seconds
Timing for main: time 2018-01-01_11:53:40 on domain   1:    0.60005 elapsed seconds
Timing for main: time 2018-01-01_11:53:50 on domain   1:    0.60062 elapsed seconds
Timing for main: time 2018-01-01_11:54:00 on domain   1:    0.59964 elapsed seconds
Timing for main: time 2018-01-01_11:54:10 on domain   1:    0.60250 elapsed seconds
Timing for main: time 2018-01-01_11:54:20 on domain   1:    0.60125 elapsed seconds
Timing for main: time 2018-01-01_11:54:30 on domain   1:    0.59885 elapsed seconds
Timing for main: time 2018-01-01_11:54:40 on domain   1:    0.59682 elapsed seconds
Timing for main: time 2018-01-01_11:54:50 on domain   1:    0.59397 elapsed seconds
Timing for main: time 2018-01-01_11:55:00 on domain   1:    1.80194 elapsed seconds
Timing for main: time 2018-01-01_11:55:10 on domain   1:    1.08151 elapsed seconds
Timing for main: time 2018-01-01_11:55:20 on domain   1:    0.59825 elapsed seconds
Timing for main: time 2018-01-01_11:55:30 on domain   1:    0.65636 elapsed seconds
Timing for main: time 2018-01-01_11:55:40 on domain   1:    0.65158 elapsed seconds
Timing for main: time 2018-01-01_11:55:50 on domain   1:    0.59885 elapsed seconds
Timing for main: time 2018-01-01_11:56:00 on domain   1:    0.60387 elapsed seconds
Timing for main: time 2018-01-01_11:56:10 on domain   1:    0.59397 elapsed seconds
Timing for main: time 2018-01-01_11:56:20 on domain   1:    0.59788 elapsed seconds
Timing for main: time 2018-01-01_11:56:30 on domain   1:    0.61141 elapsed seconds
Timing for main: time 2018-01-01_11:56:40 on domain   1:    0.59581 elapsed seconds
Timing for main: time 2018-01-01_11:56:50 on domain   1:    0.59966 elapsed seconds
Timing for main: time 2018-01-01_11:57:00 on domain   1:    0.60359 elapsed seconds
Timing for main: time 2018-01-01_11:57:10 on domain   1:    0.60960 elapsed seconds
Timing for main: time 2018-01-01_11:57:20 on domain   1:    0.60625 elapsed seconds
Timing for main: time 2018-01-01_11:57:30 on domain   1:    0.59740 elapsed seconds
Timing for main: time 2018-01-01_11:57:40 on domain   1:    0.61132 elapsed seconds
Timing for main: time 2018-01-01_11:57:50 on domain   1:    0.60141 elapsed seconds
Timing for main: time 2018-01-01_11:58:00 on domain   1:    0.59313 elapsed seconds
Timing for main: time 2018-01-01_11:58:10 on domain   1:    0.60608 elapsed seconds
Timing for main: time 2018-01-01_11:58:20 on domain   1:    0.59839 elapsed seconds
Timing for main: time 2018-01-01_11:58:30 on domain   1:    0.61058 elapsed seconds
Timing for main: time 2018-01-01_11:58:40 on domain   1:    0.60013 elapsed seconds
Timing for main: time 2018-01-01_11:58:50 on domain   1:    0.60498 elapsed seconds
Timing for main: time 2018-01-01_11:59:00 on domain   1:    0.60091 elapsed seconds
Timing for main: time 2018-01-01_11:59:10 on domain   1:    0.59444 elapsed seconds
Timing for main: time 2018-01-01_11:59:20 on domain   1:    0.60832 elapsed seconds
Timing for main: time 2018-01-01_11:59:30 on domain   1:    0.60362 elapsed seconds
Timing for main: time 2018-01-01_11:59:40 on domain   1:    0.59858 elapsed seconds
Timing for main: time 2018-01-01_11:59:50 on domain   1:    0.60520 elapsed seconds
Timing for main: time 2018-01-01_12:00:00 on domain   1:    1.79905 elapsed seconds
 mediation_integrate.G        1728 DATASET=HISTORY
 mediation_integrate.G        1729  grid%id            1  grid%oid            6
Timing for Writing wrfout_d01_2018-01-01_12:00:00 for domain        1:  333.63699 elapsed seconds
d01 2018-01-01_12:00:00 wrf: SUCCESS COMPLETE WRF
