taskid: 1677 hostname: ip-172-31-5-235
Quilting with   1 groups of   0 I/O tasks.
 Ntasks in X           64 , ntasks in Y           72
--- WARNING: traj_opt is zero, but num_traj is not zero; setting num_traj to zero.
--- NOTE: sst_update is 0, setting io_form_auxinput4 = 0 and auxinput4_interval = 0 for all domains
--- NOTE: grid_fdda is 0 for domain      1, setting gfdda interval and ending time to 0 for that domain.
--- NOTE: both grid_sfdda and pxlsm_soil_nudge are 0 for domain      1, setting sgfdda interval and ending time to 0 for that domain.
--- NOTE: obs_nudge_opt is 0 for domain      1, setting obs nudging interval and ending time to 0 for that domain.
--- NOTE: bl_pbl_physics /= 4, implies mfshconv must be 0, resetting
Need MYNN PBL for icloud_bl = 1, resetting to 0
*************************************
No physics suite selected.
Physics options will be used directly from the namelist.
*************************************
--- NOTE: RRTMG radiation is in use, setting:  levsiz=59, alevsiz=12, no_src_types=6
--- NOTE: num_soil_layers has been set to      4
WRF V3.9.1.1 MODEL
 *************************************
 Parent domain
 ids,ide,jds,jde            1         950           1         650
 ims,ime,jms,jme          189         217         229         251
 ips,ipe,jps,jpe          196         210         236         244
 *************************************
DYNAMICS OPTION: Eulerian Mass Coordinate
   alloc_space_field: domain            1 ,              203623800  bytes allocated
  med_initialdata_input: calling input_input
Max map factor in domain 1 =  1.40. Scale the dt in the model accordingly.
INPUT LandUse = "USGS"
 LANDUSE TYPE = "USGS" FOUND          33  CATEGORIES           2  SEASONS WATER CATEGORY =           16  SNOW CATEGORY =           24
INITIALIZE THREE Noah LSM RELATED TABLES
*****************************************************************
  __          _______  ______       _____  _____ _    _ _____
  \ \        / /  __ \|  ____|     / ____|/ ____| |  | |  __ \
   \ \  /\  / /| |__) | |__ ______| |  __| |    | |__| | |__) |
    \ \/  \/ / |  _  /|  __|______| | |_ | |    |  __  |  ___/
     \  /\  /  | | \ \| |         | |__| | |____| |  | | |
      \/  \/   |_|  \_\_|          \_____|\_____|_|  |_|_|
*****************************************************************
         WRF-GC MODEL, VERSION 1811.11 - WRF BINDINGS
 For errors, suggestions & feedback email linhaipeng@pku.edu.cn
*****************************************************************
    This is domain            1
 ### GIGC_Stateful_Mod: Root CPU, after READ_INPUT_FILE
  Linoz Data:  O3 climatology :                  z*=10, 12, ..., 58                             2.700E-08 1.083E-05
  Linoz Data:  Temperature climatology :         z*=10, 12, ..., 58                             1.859E+02 2.904E+02
  Linoz Data:  Column O3 above box climalology : z*=10, 12, ..., 58                             7.538E-02 3.770E+02
  Linoz Data:  P-L O3 climatology (mr/s):        z*=10, 12, ..., 58                            -1.590E-10 2.835E-11
  Linoz Data:  d(P-L)/dO3 (1/s) :                z*=10, 12, ..., 58                            -8.386E-04 7.556E-09
  Linoz Data:  d(P-L)/dT (mr/K) :                z*=10, 12, ..., 58                            -5.742E-12 4.615E-14
  Linoz Data:  d(P-L)/d(column O3) (mr/DU) :     z*=10, 12, ..., 58                            -1.921E-12 5.038E-10
 ### GIGC_Stateful_Mod: Root CPU, after LINOZ_READ
 %%%%%%%%% GIGC IN-PET GRID SWITCHING HACKS %%%%%%%%%
     (Not very) Proudly brought to you by hplin      
 Some debug information:
 ID:           1
 IM, JM, LM:          15           9          49  will be set as PAR
 Allocs: CMN T GC F
 RC at entry-point:           0
 %%%%%%%%%%%%%%%%%%%%%%%%%%%%%%%%%%%%%%%%%%%%%%%%%%%%
 No need to switch HcoState for ID           1
 Exit RC:            0
 %%%%%%%%%    FINISHED GIGC_Switch_Dims    %%%%%%%%%
 GIGC_Chunk_Init: Received new grid IM, JM, LM =          15           9
          49
     ### GIGC_INIT_SIMULATION: after Input_Opt% setups
     ### GIGC_INIT_SIMULATION: after GC_Init_All
     ### GIGC_INIT_SIMULATION: after GC_Init_Extra
     ### GIGC_INIT_SIMULATION: after INIT_FJX
 # GIGC_CHUNK_MOD: after SV save, ID =           1
 WRFGC chemics_init: Following information regarding Input_Opt% (for all doms)
 After domain           1
 HPC:  T
 LPRT:  F
 DoConv:  T
 DoDryDep:  T
 DoEmis:  T
 DoChem:  T
 DoTurb:  T
 DoWetDep:  T

 tropopause_init: DONE intialized domain            1

 mediation_integrate: med_read_wrf_chem_emissions: Open file wrfchemi_00z_d01
 HOURLY EMISSIONS UPDATE TIME        0.0       0.0
mediation_integrate: med_read_wrf_chem_emissions: Read emissions for time 2018-01-01_00:00:00
open_aux_u : error opening wrffirechemi_d01_2018-01-01_00:00:00 for reading. 100
open_aux_u : error opening wrfchemi_gocart_bg_d01 for reading. 100
d01 2018-01-01_00:00:00 Input data processed for aux input   8 for domain   1
open_aux_u : error opening wrfchemv_d01 for reading. 100
 Tile Strategy is not specified. Assuming 1D-Y
WRF TILE   1 IS    196 IE    210 JS    236 JE    244
WRF NUMBER OF TILES =   1
 max optd  1.1830547E+37
 max taucldi  0.0000000E+00
 max taucldw  0.0000000E+00
 =================================================
 W R F - G C   T I M E R S
    Domain           1 (Units: s)
 =================================================
  => Coupler Component                       0.029
   -- Physics & Parameterization             0.001
   -- Diagnostics Out                        0.000
  => GEOS-Chem Column                        0.000
  ===> Total Chemistry                       0.029
  => WRF                                     0.000
  ===> Total WRF-GC                          0.029
 max optd  1.1830547E+37
 max taucldi  6.8132088E-02
 max taucldw  1.0000007E-14
 %%%%%%%%% GIGC IN-PET GRID SWITCHING HACKS %%%%%%%%%
     (Not very) Proudly brought to you by hplin      
 Some debug information:
 ID:           1
 IM, JM, LM:          15           9          49  will be set as PAR
 Allocs: CMN T GC T
 RC at entry-point:           0
 %%%%%%%%%%%%%%%%%%%%%%%%%%%%%%%%%%%%%%%%%%%%%%%%%%%%
 No need to switch HcoState for ID           1
 Debug HcoState nSpc, NX, NY, NZ         163          15           9          49
 Exit RC:            0
 %%%%%%%%%    FINISHED GIGC_Switch_Dims    %%%%%%%%%
 GIGC_Chunk_Run: Running for in-PET grid #           1
 GIGC_Chunk_Run: Received new grid IM, JM, LM =          15           9
          49
HEMCO: Opening /fsx/HEMCO/BIOFUEL/v2014-07/biofuel.geos.4x5.nc
HEMCO: Opening /fsx/HEMCO/BROMINE/v2015-02/Bromocarb_Liang2010.nc
HEMCO: Opening /fsx/HEMCO/ACET/v2014-07/ACET_seawater.generic.1x1.nc
HEMCO: Opening /fsx/HEMCO/SOILNOX/v2014-07/DepReservoirDefault.nc
HEMCO: Opening /fsx/HEMCO/SOILNOX/v2014-07/soilNOx.landtype.generic.025x025.1L.nc
HEMCO: Opening /fsx/HEMCO/SOILNOX/v2014-07/soilNOx.climate.generic.05x05.nc
HEMCO: Opening /fsx/HEMCO/DUST_DEAD/v2014-07/dst_tibds.geos.4x5.nc
HEMCO: Opening /fsx/HEMCO/DUST_DEAD/v2014-07/GOCART_src_fn.geos.4x5.nc
HEMCO: Opening /fsx/HEMCO/MEGAN/v2018-05/MEGAN2.1_EF.geos.025x03125.nc
HEMCO: Opening /fsx/HEMCO/MEGAN/v2017-07/CLM4_PFT.geos.025x03125.nc
HEMCO: Opening /fsx/HEMCO/TIMEZONES/v2015-02/timezones_voronoi_1x1.nc
HEMCO: Opening /fsx/HEMCO/STRAT/v2015-01/Bry/GEOSCCM_Bry.200701.day.nc
HEMCO: Opening /fsx/HEMCO/STRAT/v2015-01/Bry/GEOSCCM_Bry.200701.night.nc
HEMCO: Opening /fsx/HEMCO/OMOC/v2018-01/OMOC.DJF.01x01.nc
HEMCO: Opening /fsx/HEMCO/OMOC/v2018-01/OMOC.MAM.01x01.nc
HEMCO: Opening /fsx/HEMCO/OMOC/v2018-01/OMOC.JJA.01x01.nc
HEMCO: Opening /fsx/HEMCO/OMOC/v2018-01/OMOC.SON.01x01.nc
HEMCO: Opening /fsx/HEMCO/AnnualScalar/v2014-07/AnnualScalar.geos.1x1.nc
HEMCO: Opening /fsx/HEMCO/EDGARv42/v2015-02/NO/EDGAR_hourly_NOxScal.nc
HEMCO: Opening /fsx/HEMCO/MASKS/v2018-09/EMEP_mask.geos.1x1.20151222.nc
HEMCO: Opening /fsx/HEMCO/MASKS/v2018-09/Canada_mask.geos.1x1.nc
HEMCO: Opening /fsx/HEMCO/MASKS/v2018-09/SE_Asia_mask.generic.1x1.nc
HEMCO: Opening /fsx/HEMCO/MASKS/v2018-09/MIX_Asia_mask.generic.025x025.nc
HEMCO: Opening /fsx/HEMCO/MASKS/v2018-09/CONUS_Mask.01x01.nc
HEMCO: Opening /fsx/HEMCO/MASKS/v2018-09/AF_LANDMASK.geos.05x0666.global.nc
HEMCO: Opening /fsx/HEMCO/MASKS/v2018-09/China_mask.generic.1x1.nc
HEMCO: Opening /fsx/HEMCO/MASKS/v2018-09/India_mask.generic.1x1.nc
HEMCO: Opening /fsx/HEMCO/AnnualScalar/v2014-07/AnnualScalar.geos.1x1.nc
HEMCO: Opening /fsx/HEMCO/NH3/v2014-07/NH3_geos.4x5.nc
HEMCO: Opening /fsx/HEMCO/NH3/v2018-04/NH3_Arctic_seabirds.nc
HEMCO: Opening /fsx/HEMCO/CEDS/v2018-08/2014/NO-em-anthro_CMIP_CEDS_2014.nc
HEMCO: Opening /fsx/HEMCO/CEDS/v2018-08/2014/CO-em-anthro_CMIP_CEDS_2014.nc
HEMCO: Opening /fsx/HEMCO/CEDS/v2018-08/2014/SO2-em-anthro_CMIP_CEDS_2014.nc
HEMCO: Opening /fsx/HEMCO/CEDS/v2018-08/2014/NH3-em-anthro_CMIP_CEDS_2014.nc
HEMCO: Opening /fsx/HEMCO/CEDS/v2018-08/2014/BC-em-anthro_CMIP_CEDS_2014.nc
HEMCO: Opening /fsx/HEMCO/CEDS/v2018-08/2014/OC-em-anthro_CMIP_CEDS_2014.nc
HEMCO: Opening /fsx/HEMCO/CEDS/v2018-08/2014/EOH-em-anthro_CMIP_CEDS_2014.nc
HEMCO: Opening /fsx/HEMCO/CEDS/v2018-08/2014/C2H6-em-anthro_CMIP_CEDS_2014.nc
HEMCO: Opening /fsx/HEMCO/CEDS/v2018-08/2014/C3H8-em-anthro_CMIP_CEDS_2014.nc
HEMCO: Opening /fsx/HEMCO/CEDS/v2018-08/2014/ALK4_butanes-em-anthro_CMIP_CEDS_2014.nc
HEMCO: Opening /fsx/HEMCO/CEDS/v2018-08/2014/ALK4_pentanes-em-anthro_CMIP_CEDS_2014.nc
HEMCO: Opening /fsx/HEMCO/CEDS/v2018-08/2014/ALK4_hexanes-em-anthro_CMIP_CEDS_2014.nc
HEMCO: Opening /fsx/HEMCO/CEDS/v2018-08/2014/PRPE-em-anthro_CMIP_CEDS_2014.nc
HEMCO: Opening /fsx/HEMCO/CEDS/v2018-08/2014/BENZ-em-anthro_CMIP_CEDS_2014.nc
HEMCO: Opening /fsx/HEMCO/CEDS/v2018-08/2014/TOLU-em-anthro_CMIP_CEDS_2014.nc
HEMCO: Opening /fsx/HEMCO/CEDS/v2018-08/2014/XYLE-em-anthro_CMIP_CEDS_2014.nc
HEMCO: Opening /fsx/HEMCO/CEDS/v2018-08/2014/CH2O-em-anthro_CMIP_CEDS_2014.nc
HEMCO: Opening /fsx/HEMCO/CEDS/v2018-08/2014/ALD2-em-anthro_CMIP_CEDS_2014.nc
HEMCO: Opening /fsx/HEMCO/CEDS/v2018-08/2014/MEK-em-anthro_CMIP_CEDS_2014.nc
HEMCO: Opening /fsx/HEMCO/CEDS/v2018-08/2014/HCOOH-em-anthro_CMIP_CEDS_2014.nc
HEMCO: Opening /fsx/HEMCO/C2H6_2010/v2017-05/C2H6_global_anth_biof.201001.nc
HEMCO: Opening /fsx/HEMCO/NEI2011/v2017-02-MM/01/NEI11_0.1x0.1_201101_monmean.nc
HEMCO: Opening /fsx/HEMCO/NEI2011/v2017-02-MM/01/NEI11_0.1x0.1_201101_monmean_egu.nc
HEMCO: Opening /fsx/HEMCO/NEI2011/v2017-02-MM/01/NEI11_0.1x0.1_201101_monmean_egupk.nc
HEMCO: Opening /fsx/HEMCO/NEI2011/v2017-02-MM/01/NEI11_0.1x0.1_201101_monmean_oilgas.nc
HEMCO: Opening /fsx/HEMCO/NEI2011/v2017-02-MM/01/NEI11_0.1x0.1_201101_monmean_othpt.nc
HEMCO: Opening /fsx/HEMCO/NEI2011/v2017-02-MM/01/NEI11_0.1x0.1_201101_monmean_ptnonipm.nc
HEMCO: Opening /fsx/HEMCO/IODINE/v2017-09/CH3I_monthly_emissions_Ordonez_2012_COARDS.nc
HEMCO: Opening /fsx/HEMCO/IODINE/v2017-09/CH2I2_monthly_emissions_Ordonez_2012_COARDS.nc
HEMCO: Opening /fsx/HEMCO/IODINE/v2017-09/CH2ICl_monthly_emissions_Ordonez_2012_COARDS.nc
HEMCO: Opening /fsx/HEMCO/IODINE/v2017-09/CH2IBr_monthly_emissions_Ordonez_2012_COARDS.nc
HEMCO: Opening /fsx/HEMCO/CEDS/v2018-08/2014/CO-em-anthro_CMIP_CEDS_2014.nc
HEMCO: Opening /fsx/HEMCO/CEDS/v2018-08/2014/SO2-em-anthro_CMIP_CEDS_2014.nc
HEMCO: Opening /fsx/HEMCO/CEDS/v2018-08/2014/NH3-em-anthro_CMIP_CEDS_2014.nc
HEMCO: Opening /fsx/HEMCO/CEDS/v2018-08/2014/BC-em-anthro_CMIP_CEDS_2014.nc
HEMCO: Opening /fsx/HEMCO/CEDS/v2018-08/2014/OC-em-anthro_CMIP_CEDS_2014.nc
HEMCO: Opening /fsx/HEMCO/CEDS/v2018-08/2014/EOH-em-anthro_CMIP_CEDS_2014.nc
HEMCO: Opening /fsx/HEMCO/CEDS/v2018-08/2014/C2H6-em-anthro_CMIP_CEDS_2014.nc
HEMCO: Opening /fsx/HEMCO/CEDS/v2018-08/2014/C3H8-em-anthro_CMIP_CEDS_2014.nc
HEMCO: Opening /fsx/HEMCO/CEDS/v2018-08/2014/ALK4_butanes-em-anthro_CMIP_CEDS_2014.nc
HEMCO: Opening /fsx/HEMCO/CEDS/v2018-08/2014/ALK4_pentanes-em-anthro_CMIP_CEDS_2014.nc
HEMCO: Opening /fsx/HEMCO/CEDS/v2018-08/2014/ALK4_hexanes-em-anthro_CMIP_CEDS_2014.nc
HEMCO: Opening /fsx/HEMCO/CEDS/v2018-08/2014/PRPE-em-anthro_CMIP_CEDS_2014.nc
HEMCO: Opening /fsx/HEMCO/CEDS/v2018-08/2014/BENZ-em-anthro_CMIP_CEDS_2014.nc
HEMCO: Opening /fsx/HEMCO/CEDS/v2018-08/2014/TOLU-em-anthro_CMIP_CEDS_2014.nc
HEMCO: Opening /fsx/HEMCO/CEDS/v2018-08/2014/XYLE-em-anthro_CMIP_CEDS_2014.nc
HEMCO: Opening /fsx/HEMCO/CEDS/v2018-08/2014/CH2O-em-anthro_CMIP_CEDS_2014.nc
HEMCO: Opening /fsx/HEMCO/CEDS/v2018-08/2014/ALD2-em-anthro_CMIP_CEDS_2014.nc
HEMCO: Opening /fsx/HEMCO/CEDS/v2018-08/2014/MEK-em-anthro_CMIP_CEDS_2014.nc
HEMCO: Opening /fsx/HEMCO/CEDS/v2018-08/2014/HCOOH-em-anthro_CMIP_CEDS_2014.nc
HEMCO: Opening /fsx/HEMCO/CEDS/v2018-08/2014/NO-em-anthro_CMIP_CEDS_2014.nc
HEMCO: Opening /fsx/HEMCO/AEIC/v2015-01/AEIC.47L.gen.1x1.nc
HEMCO: Opening /fsx/HEMCO/ALD2/v2017-03/resp.geos.2x25.nc
HEMCO: Opening /fsx/HEMCO/DMS/v2015-07/DMS_lana.geos.1x1.nc
HEMCO: Opening /fsx/HEMCO/ALD2/v2017-03/ALD2_seawater.geos.2x25.nc
HEMCO: Opening /fsx/HEMCO/DUST_DEAD/v2014-07/dst_tvbds.geos.4x5.nc
HEMCO: Opening /fsx/HEMCO/DUST_DEAD/v2018-04/PM25FINE_ECLIPSE_2015.geos.2x25.nc
HEMCO: Opening /fsx/HEMCO/SOA/v2014-07/NVOC.geos.1x1.nc
HEMCO: Opening /fsx/HEMCO/GFED4/v2015-10/2016/GFED4_gen.025x025.201601.nc
HEMCO: Opening /fsx/HEMCO/UVALBEDO/v2015-03/uvalbedo.geos.2x25.nc
HEMCO: Opening /fsx/HEMCO/GMI/v2015-02/gmi.clim.ACET.geos5.2x25.nc
HEMCO: Opening /fsx/HEMCO/GMI/v2015-02/gmi.clim.ACTA.geos5.2x25.nc
HEMCO: Opening /fsx/HEMCO/GMI/v2015-02/gmi.clim.ALD2.geos5.2x25.nc
HEMCO: Opening /fsx/HEMCO/GMI/v2015-02/gmi.clim.ALK4.geos5.2x25.nc
HEMCO: Opening /fsx/HEMCO/GMI/v2015-02/gmi.clim.C2H6.geos5.2x25.nc
HEMCO: Opening /fsx/HEMCO/GMI/v2015-02/gmi.clim.C3H8.geos5.2x25.nc
HEMCO: Opening /fsx/HEMCO/GMI/v2015-02/gmi.clim.CCl4.geos5.2x25.nc
HEMCO: Opening /fsx/HEMCO/GMI/v2015-02/gmi.clim.CF2Cl2.geos5.2x25.nc
HEMCO: Opening /fsx/HEMCO/GMI/v2015-02/gmi.clim.CF2ClBr.geos5.2x25.nc
HEMCO: Opening /fsx/HEMCO/GMI/v2015-02/gmi.clim.CFC113.geos5.2x25.nc
HEMCO: Opening /fsx/HEMCO/GMI/v2015-02/gmi.clim.CFC114.geos5.2x25.nc
HEMCO: Opening /fsx/HEMCO/GMI/v2015-02/gmi.clim.CFC115.geos5.2x25.nc
HEMCO: Opening /fsx/HEMCO/GMI/v2015-02/gmi.clim.CFCl3.geos5.2x25.nc
HEMCO: Opening /fsx/HEMCO/GMI/v2015-02/gmi.clim.CH2O.geos5.2x25.nc
HEMCO: Opening /fsx/HEMCO/GMI/v2015-02/gmi.clim.CH3CCl3.geos5.2x25.nc
HEMCO: Opening /fsx/HEMCO/GMI/v2015-02/gmi.clim.CH3Cl.geos5.2x25.nc
HEMCO: Opening /fsx/HEMCO/GMI/v2015-02/gmi.clim.CH4.geos5.2x25.nc
HEMCO: Opening /fsx/HEMCO/GMI/v2015-02/gmi.clim.CO.geos5.2x25.nc
HEMCO: Opening /fsx/HEMCO/GMI/v2015-02/gmi.clim.Cl.geos5.2x25.nc
HEMCO: Opening /fsx/HEMCO/GMI/v2015-02/gmi.clim.Cl2.geos5.2x25.nc
HEMCO: Opening /fsx/HEMCO/GMI/v2015-02/gmi.clim.Cl2O2.geos5.2x25.nc
HEMCO: Opening /fsx/HEMCO/GMI/v2015-02/gmi.clim.ClO.geos5.2x25.nc
HEMCO: Opening /fsx/HEMCO/GMI/v2015-02/gmi.clim.EOH.geos5.2x25.nc
HEMCO: Opening /fsx/HEMCO/GMI/v2015-02/gmi.clim.GLYC.geos5.2x25.nc
HEMCO: Opening /fsx/HEMCO/GMI/v2015-02/gmi.clim.GLYX.geos5.2x25.nc
HEMCO: Opening /fsx/HEMCO/GMI/v2015-02/gmi.clim.H2402.geos5.2x25.nc
HEMCO: Opening /fsx/HEMCO/GMI/v2015-02/gmi.clim.H2O.geos5.2x25.nc
HEMCO: Opening /fsx/HEMCO/GMI/v2015-02/gmi.clim.H2O2.geos5.2x25.nc
HEMCO: Opening /fsx/HEMCO/GMI/v2015-02/gmi.clim.HAC.geos5.2x25.nc
HEMCO: Opening /fsx/HEMCO/GMI/v2015-02/gmi.clim.HCFC141b.geos5.2x25.nc
HEMCO: Opening /fsx/HEMCO/GMI/v2015-02/gmi.clim.HCFC142b.geos5.2x25.nc
HEMCO: Opening /fsx/HEMCO/GMI/v2015-02/gmi.clim.HCFC22.geos5.2x25.nc
HEMCO: Opening /fsx/HEMCO/GMI/v2015-02/gmi.clim.HCOOH.geos5.2x25.20170108.nc
HEMCO: Opening /fsx/HEMCO/GMI/v2015-02/gmi.clim.HCl.geos5.2x25.nc
HEMCO: Opening /fsx/HEMCO/GMI/v2015-02/gmi.clim.HNO2.geos5.2x25.nc
HEMCO: Opening /fsx/HEMCO/GMI/v2015-02/gmi.clim.HNO3.geos5.2x25.nc
HEMCO: Opening /fsx/HEMCO/GMI/v2015-02/gmi.clim.HNO4.geos5.2x25.nc
HEMCO: Opening /fsx/HEMCO/GMI/v2015-02/gmi.clim.HOCl.geos5.2x25.nc
HEMCO: Opening /fsx/HEMCO/GMI/v2015-02/gmi.clim.ISN1.geos5.2x25.nc
HEMCO: Opening /fsx/HEMCO/GMI/v2015-02/gmi.clim.ISOP.geos5.2x25.nc
HEMCO: Opening /fsx/HEMCO/GMI/v2015-02/gmi.clim.MACR.geos5.2x25.nc
HEMCO: Opening /fsx/HEMCO/GMI/v2015-02/gmi.clim.MAP.geos5.2x25.nc
HEMCO: Opening /fsx/HEMCO/GMI/v2015-02/gmi.clim.MEK.geos5.2x25.nc
HEMCO: Opening /fsx/HEMCO/GMI/v2015-02/gmi.clim.MGLY.geos5.2x25.nc
HEMCO: Opening /fsx/HEMCO/GMI/v2015-02/gmi.clim.MP.geos5.2x25.nc
HEMCO: Opening /fsx/HEMCO/GMI/v2015-02/gmi.clim.MVK.geos5.2x25.nc
HEMCO: Opening /fsx/HEMCO/GMI/v2015-02/gmi.clim.N2O.geos5.2x25.nc
HEMCO: Opening /fsx/HEMCO/GMI/v2015-02/gmi.clim.N2O5.geos5.2x25.nc
HEMCO: Opening /fsx/HEMCO/GMI/v2015-02/gmi.clim.NO.geos5.2x25.nc
HEMCO: Opening /fsx/HEMCO/GMI/v2015-02/gmi.clim.NO2.geos5.2x25.nc
HEMCO: Opening /fsx/HEMCO/GMI/v2015-02/gmi.clim.NO3.geos5.2x25.nc
HEMCO: Opening /fsx/HEMCO/GMI/v2015-02/gmi.clim.O3.geos5.2x25.nc
HEMCO: Opening /fsx/HEMCO/GMI/v2015-02/gmi.clim.OClO.geos5.2x25.nc
HEMCO: Opening /fsx/HEMCO/GMI/v2015-02/gmi.clim.PAN.geos5.2x25.nc
HEMCO: Opening /fsx/HEMCO/GMI/v2015-02/gmi.clim.NPMN.geos5.2x25.nc
HEMCO: Opening /fsx/HEMCO/GMI/v2015-02/gmi.clim.IPMN.geos5.2x25.nc
HEMCO: Opening /fsx/HEMCO/GMI/v2015-02/gmi.clim.PPN.geos5.2x25.nc
HEMCO: Opening /fsx/HEMCO/GMI/v2015-02/gmi.clim.PRPE.geos5.2x25.nc
HEMCO: Opening /fsx/HEMCO/GMI/v2015-02/gmi.clim.R4N2.geos5.2x25.nc
HEMCO: Opening /fsx/HEMCO/GMI/v2015-02/gmi.clim.RCHO.geos5.2x25.nc
HEMCO: Opening /fsx/HEMCO/GMI/v2015-02/gmi.clim.RIPA.geos5.2x25.nc
HEMCO: Opening /fsx/HEMCO/GMI/v2015-02/gmi.clim.RIPB.geos5.2x25.nc
HEMCO: Opening /fsx/HEMCO/GMI/v2015-02/gmi.clim.RIPD.geos5.2x25.nc
HEMCO: Opening /fsx/HEMCO/GMI/v2015-02/gmi.clim.OH.geos5.2x25.nc
HEMCO: Opening /fsx/HEMCO/NOAA_GMD/v2018-01/monthly.gridded.surface.methane.1979-2020.1x1.nc
HEMCO: Opening /fsx/HEMCO/GEIA/v2014-07/GEIA_monthscal.generic.1x1.nc
HEMCO: Opening /fsx/HEMCO/EMEP/v2015-03/EMEP.Seasonal.geos.1x1.nc
HEMCO: Opening /fsx/HEMCO/BROMINE/v2015-02/BromoCarb_Season.nc
HEMCO: Opening /fsx/HEMCO/EDGARv43/v2016-11/EDGAR_v43.Seasonal.1x1.nc
HEMCO: Opening /fsx/HEMCO/NEI2005/v2014-09/scaling/NEI99.dow.geos.1x1.nc
HEMCO: Opening /fsx/HEMCO/VOLCANO/v2015-02/2009/volc_so2_gen.1x1.47L.200901.nc
HEMCO: Opening /fsx/HEMCO/SOILNOX/v2014-07/soilNOx.fert_res.generic.05x05.nc
 vdinti: pbl height will be limited to bottom           25  model levels. top is
     431.250100000000       hpa
 =================================================
 W R F - G C   T I M E R S
    Domain           1 (Units: s)
 =================================================
  => Coupler Component                       0.055
   -- Physics & Parameterization             0.010
   -- Diagnostics Out                        0.000
  => GEOS-Chem Column                      140.084
  ===> Total Chemistry                     140.139
  => WRF                                    17.295
  ===> Total WRF-GC                        157.434
 max optd  1.9364301E+31
 max taucldi  0.1069852    
 max taucldw  3.6766048E-06
 Switching is not necessary as we are already
 in the right domain!
 GIGC_Chunk_Run: Running for in-PET grid #           1
 GIGC_Chunk_Run: Received new grid IM, JM, LM =          15           9
          49
 =================================================
 W R F - G C   T I M E R S
    Domain           1 (Units: s)
 =================================================
  => Coupler Component                       0.081
   -- Physics & Parameterization             0.019
   -- Diagnostics Out                        0.000
  => GEOS-Chem Column                      142.381
  ===> Total Chemistry                     142.461
  => WRF                                    50.814
  ===> Total WRF-GC                        193.275
 max optd  1.9364301E+31
 max taucldi  9.8485157E-02
 max taucldw  7.1848931E-06
 Switching is not necessary as we are already
 in the right domain!
 GIGC_Chunk_Run: Running for in-PET grid #           1
 GIGC_Chunk_Run: Received new grid IM, JM, LM =          15           9
          49
 =================================================
 W R F - G C   T I M E R S
    Domain           1 (Units: s)
 =================================================
  => Coupler Component                       0.114
   -- Physics & Parameterization             0.029
   -- Diagnostics Out                        0.000
  => GEOS-Chem Column                      143.901
  ===> Total Chemistry                     144.015
  => WRF                                    70.381
  ===> Total WRF-GC                        214.395
 max optd  1.9364301E+31
 max taucldi  0.1360700    
 max taucldw  1.0531548E-05
 Switching is not necessary as we are already
 in the right domain!
 GIGC_Chunk_Run: Running for in-PET grid #           1
 GIGC_Chunk_Run: Received new grid IM, JM, LM =          15           9
          49
 =================================================
 W R F - G C   T I M E R S
    Domain           1 (Units: s)
 =================================================
  => Coupler Component                       0.146
   -- Physics & Parameterization             0.038
   -- Diagnostics Out                        0.000
  => GEOS-Chem Column                      145.193
  ===> Total Chemistry                     145.340
  => WRF                                    88.945
  ===> Total WRF-GC                        234.285
 max optd  1.9364301E+31
 max taucldi  0.1478896    
 max taucldw  1.4048015E-05
 Switching is not necessary as we are already
 in the right domain!
 GIGC_Chunk_Run: Running for in-PET grid #           1
 GIGC_Chunk_Run: Received new grid IM, JM, LM =          15           9
          49
 =================================================
 W R F - G C   T I M E R S
    Domain           1 (Units: s)
 =================================================
  => Coupler Component                       0.179
   -- Physics & Parameterization             0.048
   -- Diagnostics Out                        0.000
  => GEOS-Chem Column                      146.486
  ===> Total Chemistry                     146.665
  => WRF                                   107.284
  ===> Total WRF-GC                        253.949
 max optd  1.9364301E+31
 max taucldi  0.1463407    
 max taucldw  1.7836528E-05
 Switching is not necessary as we are already
 in the right domain!
 GIGC_Chunk_Run: Running for in-PET grid #           1
 GIGC_Chunk_Run: Received new grid IM, JM, LM =          15           9
          49
 =================================================
 W R F - G C   T I M E R S
    Domain           1 (Units: s)
 =================================================
  => Coupler Component                       0.220
   -- Physics & Parameterization             0.057
   -- Diagnostics Out                        0.000
  => GEOS-Chem Column                      147.701
  ===> Total Chemistry                     147.921
  => WRF                                   125.499
  ===> Total WRF-GC                        273.420
 max optd  1.9364301E+31
 max taucldi  0.1527611    
 max taucldw  2.1836257E-05
 Switching is not necessary as we are already
 in the right domain!
 GIGC_Chunk_Run: Running for in-PET grid #           1
 GIGC_Chunk_Run: Received new grid IM, JM, LM =          15           9
          49
 =================================================
 W R F - G C   T I M E R S
    Domain           1 (Units: s)
 =================================================
  => Coupler Component                       0.260
   -- Physics & Parameterization             0.066
   -- Diagnostics Out                        0.000
  => GEOS-Chem Column                      148.920
  ===> Total Chemistry                     149.180
  => WRF                                   143.778
  ===> Total WRF-GC                        292.958
 max optd  1.9364301E+31
 max taucldi  0.1578072    
 max taucldw  2.6210850E-05
 Switching is not necessary as we are already
 in the right domain!
 GIGC_Chunk_Run: Running for in-PET grid #           1
 GIGC_Chunk_Run: Received new grid IM, JM, LM =          15           9
          49
 =================================================
 W R F - G C   T I M E R S
    Domain           1 (Units: s)
 =================================================
  => Coupler Component                       0.299
   -- Physics & Parameterization             0.076
   -- Diagnostics Out                        0.000
  => GEOS-Chem Column                      150.117
  ===> Total Chemistry                     150.416
  => WRF                                   161.985
  ===> Total WRF-GC                        312.401
 max optd  1.9364301E+31
 max taucldi  0.1712484    
 max taucldw  3.0768952E-05
 Switching is not necessary as we are already
 in the right domain!
 GIGC_Chunk_Run: Running for in-PET grid #           1
 GIGC_Chunk_Run: Received new grid IM, JM, LM =          15           9
          49
 =================================================
 W R F - G C   T I M E R S
    Domain           1 (Units: s)
 =================================================
  => Coupler Component                       0.336
   -- Physics & Parameterization             0.086
   -- Diagnostics Out                        0.000
  => GEOS-Chem Column                      151.304
  ===> Total Chemistry                     151.640
  => WRF                                   180.215
  ===> Total WRF-GC                        331.855
 max optd  1.9364301E+31
 max taucldi  0.1916051    
 max taucldw  3.5555386E-05
 Switching is not necessary as we are already
 in the right domain!
 GIGC_Chunk_Run: Running for in-PET grid #           1
 GIGC_Chunk_Run: Received new grid IM, JM, LM =          15           9
          49
 =================================================
 W R F - G C   T I M E R S
    Domain           1 (Units: s)
 =================================================
  => Coupler Component                       0.369
   -- Physics & Parameterization             0.095
   -- Diagnostics Out                        0.000
  => GEOS-Chem Column                      152.470
  ===> Total Chemistry                     152.839
  => WRF                                   198.519
  ===> Total WRF-GC                        351.358
 max optd  1.9364301E+31
 max taucldi  0.1940557    
 max taucldw  4.0736482E-05
 Switching is not necessary as we are already
 in the right domain!
 GIGC_Chunk_Run: Running for in-PET grid #           1
 GIGC_Chunk_Run: Received new grid IM, JM, LM =          15           9
          49
 =================================================
 W R F - G C   T I M E R S
    Domain           1 (Units: s)
 =================================================
  => Coupler Component                       0.402
   -- Physics & Parameterization             0.105
   -- Diagnostics Out                        0.000
  => GEOS-Chem Column                      153.640
  ===> Total Chemistry                     154.043
  => WRF                                   216.766
  ===> Total WRF-GC                        370.808
 max optd  1.9364301E+31
 max taucldi  0.2036377    
 max taucldw  4.6552479E-05
 Switching is not necessary as we are already
 in the right domain!
 GIGC_Chunk_Run: Running for in-PET grid #           1
 GIGC_Chunk_Run: Received new grid IM, JM, LM =          15           9
          49
 =================================================
 W R F - G C   T I M E R S
    Domain           1 (Units: s)
 =================================================
  => Coupler Component                       0.434
   -- Physics & Parameterization             0.114
   -- Diagnostics Out                        0.000
  => GEOS-Chem Column                      154.786
  ===> Total Chemistry                     155.220
  => WRF                                   234.885
  ===> Total WRF-GC                        390.105
 HOURLY EMISSIONS UPDATE TIME     3600.0       0.0
mediation_integrate: med_read_wrf_chem_emissions: Read emissions for time 2018-01-01_01:00:00
 max optd  1.9364301E+31
 max taucldi  0.2029370    
 max taucldw  5.2727759E-05
 Switching is not necessary as we are already
 in the right domain!
 GIGC_Chunk_Run: Running for in-PET grid #           1
 GIGC_Chunk_Run: Received new grid IM, JM, LM =          15           9
          49
 =================================================
 W R F - G C   T I M E R S
    Domain           1 (Units: s)
 =================================================
  => Coupler Component                       0.470
   -- Physics & Parameterization             0.124
   -- Diagnostics Out                        0.000
  => GEOS-Chem Column                      155.828
  ===> Total Chemistry                     156.298
  => WRF                                   253.121
  ===> Total WRF-GC                        409.419
 max optd  1.9364301E+31
 max taucldi  0.1942647    
 max taucldw  5.8524041E-05
 Switching is not necessary as we are already
 in the right domain!
 GIGC_Chunk_Run: Running for in-PET grid #           1
 GIGC_Chunk_Run: Received new grid IM, JM, LM =          15           9
          49
 =================================================
 W R F - G C   T I M E R S
    Domain           1 (Units: s)
 =================================================
  => Coupler Component                       0.508
   -- Physics & Parameterization             0.133
   -- Diagnostics Out                        0.000
  => GEOS-Chem Column                      156.874
  ===> Total Chemistry                     157.382
  => WRF                                   271.437
  ===> Total WRF-GC                        428.819
 max optd  1.9364301E+31
 max taucldi  0.1839024    
 max taucldw  6.4016014E-05
 Switching is not necessary as we are already
 in the right domain!
 GIGC_Chunk_Run: Running for in-PET grid #           1
 GIGC_Chunk_Run: Received new grid IM, JM, LM =          15           9
          49
 =================================================
 W R F - G C   T I M E R S
    Domain           1 (Units: s)
 =================================================
  => Coupler Component                       0.544
   -- Physics & Parameterization             0.143
   -- Diagnostics Out                        0.000
  => GEOS-Chem Column                      157.918
  ===> Total Chemistry                     158.462
  => WRF                                   289.639
  ===> Total WRF-GC                        448.101
 max optd  1.9364301E+31
 max taucldi  0.1572286    
 max taucldw  7.2917872E-05
 Switching is not necessary as we are already
 in the right domain!
 GIGC_Chunk_Run: Running for in-PET grid #           1
 GIGC_Chunk_Run: Received new grid IM, JM, LM =          15           9
          49
 =================================================
 W R F - G C   T I M E R S
    Domain           1 (Units: s)
 =================================================
  => Coupler Component                       0.582
   -- Physics & Parameterization             0.152
   -- Diagnostics Out                        0.000
  => GEOS-Chem Column                      158.948
  ===> Total Chemistry                     159.530
  => WRF                                   307.963
  ===> Total WRF-GC                        467.494
 max optd  1.9364301E+31
 max taucldi  0.1218686    
 max taucldw  8.1049511E-05
 Switching is not necessary as we are already
 in the right domain!
 GIGC_Chunk_Run: Running for in-PET grid #           1
 GIGC_Chunk_Run: Received new grid IM, JM, LM =          15           9
          49
 =================================================
 W R F - G C   T I M E R S
    Domain           1 (Units: s)
 =================================================
  => Coupler Component                       0.621
   -- Physics & Parameterization             0.162
   -- Diagnostics Out                        0.000
  => GEOS-Chem Column                      159.989
  ===> Total Chemistry                     160.610
  => WRF                                   326.180
  ===> Total WRF-GC                        486.790
 max optd  1.9364301E+31
 max taucldi  9.2398681E-02
 max taucldw  8.7129367E-05
 Switching is not necessary as we are already
 in the right domain!
 GIGC_Chunk_Run: Running for in-PET grid #           1
 GIGC_Chunk_Run: Received new grid IM, JM, LM =          15           9
          49
 =================================================
 W R F - G C   T I M E R S
    Domain           1 (Units: s)
 =================================================
  => Coupler Component                       0.660
   -- Physics & Parameterization             0.171
   -- Diagnostics Out                        0.000
  => GEOS-Chem Column                      161.053
  ===> Total Chemistry                     161.713
  => WRF                                   344.385
  ===> Total WRF-GC                        506.098
 max optd  1.9364301E+31
 max taucldi  8.3965547E-02
 max taucldw  8.9964713E-05
 Switching is not necessary as we are already
 in the right domain!
 GIGC_Chunk_Run: Running for in-PET grid #           1
 GIGC_Chunk_Run: Received new grid IM, JM, LM =          15           9
          49
 =================================================
 W R F - G C   T I M E R S
    Domain           1 (Units: s)
 =================================================
  => Coupler Component                       0.706
   -- Physics & Parameterization             0.180
   -- Diagnostics Out                        0.000
  => GEOS-Chem Column                      162.096
  ===> Total Chemistry                     162.803
  => WRF                                   362.623
  ===> Total WRF-GC                        525.426
 max optd  1.9364301E+31
 max taucldi  8.9089602E-02
 max taucldw  8.9079971E-05
 Switching is not necessary as we are already
 in the right domain!
 GIGC_Chunk_Run: Running for in-PET grid #           1
 GIGC_Chunk_Run: Received new grid IM, JM, LM =          15           9
          49
 =================================================
 W R F - G C   T I M E R S
    Domain           1 (Units: s)
 =================================================
  => Coupler Component                       0.748
   -- Physics & Parameterization             0.190
   -- Diagnostics Out                        0.000
  => GEOS-Chem Column                      163.163
  ===> Total Chemistry                     163.910
  => WRF                                   380.981
  ===> Total WRF-GC                        544.892
 max optd  1.9364301E+31
 max taucldi  8.4976137E-02
 max taucldw  8.7499771E-05
 Switching is not necessary as we are already
 in the right domain!
 GIGC_Chunk_Run: Running for in-PET grid #           1
 GIGC_Chunk_Run: Received new grid IM, JM, LM =          15           9
          49
 =================================================
 W R F - G C   T I M E R S
    Domain           1 (Units: s)
 =================================================
  => Coupler Component                       0.795
   -- Physics & Parameterization             0.199
   -- Diagnostics Out                        0.000
  => GEOS-Chem Column                      164.225
  ===> Total Chemistry                     165.020
  => WRF                                   399.067
  ===> Total WRF-GC                        564.087
 max optd  1.9364301E+31
 max taucldi  8.8915177E-02
 max taucldw  8.9691202E-05
 Switching is not necessary as we are already
 in the right domain!
 GIGC_Chunk_Run: Running for in-PET grid #           1
 GIGC_Chunk_Run: Received new grid IM, JM, LM =          15           9
          49
 =================================================
 W R F - G C   T I M E R S
    Domain           1 (Units: s)
 =================================================
  => Coupler Component                       0.839
   -- Physics & Parameterization             0.208
   -- Diagnostics Out                        0.000
  => GEOS-Chem Column                      165.295
  ===> Total Chemistry                     166.134
  => WRF                                   417.223
  ===> Total WRF-GC                        583.357
 max optd  1.9364301E+31
 max taucldi  8.2292400E-02
 max taucldw  8.8345099E-05
 Switching is not necessary as we are already
 in the right domain!
 GIGC_Chunk_Run: Running for in-PET grid #           1
 GIGC_Chunk_Run: Received new grid IM, JM, LM =          15           9
          49
 =================================================
 W R F - G C   T I M E R S
    Domain           1 (Units: s)
 =================================================
  => Coupler Component                       0.885
   -- Physics & Parameterization             0.218
   -- Diagnostics Out                        0.000
  => GEOS-Chem Column                      166.363
  ===> Total Chemistry                     167.248
  => WRF                                   435.491
  ===> Total WRF-GC                        602.739
 max optd  1.9364301E+31
 max taucldi  7.4843079E-02
 max taucldw  8.4774016E-05
 Switching is not necessary as we are already
 in the right domain!
 GIGC_Chunk_Run: Running for in-PET grid #           1
 GIGC_Chunk_Run: Received new grid IM, JM, LM =          15           9
          49
 =================================================
 W R F - G C   T I M E R S
    Domain           1 (Units: s)
 =================================================
  => Coupler Component                       0.926
   -- Physics & Parameterization             0.227
   -- Diagnostics Out                        0.000
  => GEOS-Chem Column                      167.438
  ===> Total Chemistry                     168.364
  => WRF                                   453.643
  ===> Total WRF-GC                        622.007
 HOURLY EMISSIONS UPDATE TIME     7200.0       0.0
mediation_integrate: med_read_wrf_chem_emissions: Read emissions for time 2018-01-01_02:00:00
 max optd  1.9364301E+31
 max taucldi  6.9023408E-02
 max taucldw  8.0431026E-05
 Switching is not necessary as we are already
 in the right domain!
 GIGC_Chunk_Run: Running for in-PET grid #           1
 GIGC_Chunk_Run: Received new grid IM, JM, LM =          15           9
          49
 =================================================
 W R F - G C   T I M E R S
    Domain           1 (Units: s)
 =================================================
  => Coupler Component                       0.971
   -- Physics & Parameterization             0.237
   -- Diagnostics Out                        0.000
  => GEOS-Chem Column                      168.463
  ===> Total Chemistry                     169.434
  => WRF                                   471.813
  ===> Total WRF-GC                        641.247
 max optd  1.9364301E+31
 max taucldi  6.0602374E-02
 max taucldw  7.6383316E-05
 Switching is not necessary as we are already
 in the right domain!
 GIGC_Chunk_Run: Running for in-PET grid #           1
 GIGC_Chunk_Run: Received new grid IM, JM, LM =          15           9
          49
 =================================================
 W R F - G C   T I M E R S
    Domain           1 (Units: s)
 =================================================
  => Coupler Component                       1.012
   -- Physics & Parameterization             0.246
   -- Diagnostics Out                        0.000
  => GEOS-Chem Column                      169.540
  ===> Total Chemistry                     170.552
  => WRF                                   490.066
  ===> Total WRF-GC                        660.618
 max optd  1.9364301E+31
 max taucldi  5.9547719E-02
 max taucldw  7.3031144E-05
 Switching is not necessary as we are already
 in the right domain!
 GIGC_Chunk_Run: Running for in-PET grid #           1
 GIGC_Chunk_Run: Received new grid IM, JM, LM =          15           9
          49
 =================================================
 W R F - G C   T I M E R S
    Domain           1 (Units: s)
 =================================================
  => Coupler Component                       1.056
   -- Physics & Parameterization             0.256
   -- Diagnostics Out                        0.000
  => GEOS-Chem Column                      170.610
  ===> Total Chemistry                     171.666
  => WRF                                   508.152
  ===> Total WRF-GC                        679.817
 max optd  1.9364301E+31
 max taucldi  4.6308380E-02
 max taucldw  7.2452443E-05
 Switching is not necessary as we are already
 in the right domain!
 GIGC_Chunk_Run: Running for in-PET grid #           1
 GIGC_Chunk_Run: Received new grid IM, JM, LM =          15           9
          49
 =================================================
 W R F - G C   T I M E R S
    Domain           1 (Units: s)
 =================================================
  => Coupler Component                       1.096
   -- Physics & Parameterization             0.265
   -- Diagnostics Out                        0.000
  => GEOS-Chem Column                      171.690
  ===> Total Chemistry                     172.786
  => WRF                                   526.250
  ===> Total WRF-GC                        699.036
 max optd  1.9364301E+31
 max taucldi  4.1514326E-02
 max taucldw  7.5229080E-05
 Switching is not necessary as we are already
 in the right domain!
 GIGC_Chunk_Run: Running for in-PET grid #           1
 GIGC_Chunk_Run: Received new grid IM, JM, LM =          15           9
          49
 =================================================
 W R F - G C   T I M E R S
    Domain           1 (Units: s)
 =================================================
  => Coupler Component                       1.145
   -- Physics & Parameterization             0.275
   -- Diagnostics Out                        0.000
  => GEOS-Chem Column                      172.750
  ===> Total Chemistry                     173.895
  => WRF                                   544.354
  ===> Total WRF-GC                        718.249
 max optd  1.9364301E+31
 max taucldi  4.0271662E-02
 max taucldw  7.6477038E-05
 Switching is not necessary as we are already
 in the right domain!
 GIGC_Chunk_Run: Running for in-PET grid #           1
 GIGC_Chunk_Run: Received new grid IM, JM, LM =          15           9
          49
 =================================================
 W R F - G C   T I M E R S
    Domain           1 (Units: s)
 =================================================
  => Coupler Component                       1.186
   -- Physics & Parameterization             0.285
   -- Diagnostics Out                        0.000
  => GEOS-Chem Column                      173.832
  ===> Total Chemistry                     175.018
  => WRF                                   562.475
  ===> Total WRF-GC                        737.493
 max optd  1.9364301E+31
 max taucldi  3.5770118E-02
 max taucldw  7.6133743E-05
 Switching is not necessary as we are already
 in the right domain!
 GIGC_Chunk_Run: Running for in-PET grid #           1
 GIGC_Chunk_Run: Received new grid IM, JM, LM =          15           9
          49
 =================================================
 W R F - G C   T I M E R S
    Domain           1 (Units: s)
 =================================================
  => Coupler Component                       1.226
   -- Physics & Parameterization             0.294
   -- Diagnostics Out                        0.000
  => GEOS-Chem Column                      174.899
  ===> Total Chemistry                     176.125
  => WRF                                   580.587
  ===> Total WRF-GC                        756.712
 max optd  1.9364301E+31
 max taucldi  3.0158626E-02
 max taucldw  7.4562042E-05
 Switching is not necessary as we are already
 in the right domain!
 GIGC_Chunk_Run: Running for in-PET grid #           1
 GIGC_Chunk_Run: Received new grid IM, JM, LM =          15           9
          49
 =================================================
 W R F - G C   T I M E R S
    Domain           1 (Units: s)
 =================================================
  => Coupler Component                       1.266
   -- Physics & Parameterization             0.304
   -- Diagnostics Out                        0.000
  => GEOS-Chem Column                      175.970
  ===> Total Chemistry                     177.236
  => WRF                                   598.659
  ===> Total WRF-GC                        775.895
 max optd  1.9364301E+31
 max taucldi  2.4663972E-02
 max taucldw  7.2470277E-05
 Switching is not necessary as we are already
 in the right domain!
 GIGC_Chunk_Run: Running for in-PET grid #           1
 GIGC_Chunk_Run: Received new grid IM, JM, LM =          15           9
          49
 =================================================
 W R F - G C   T I M E R S
    Domain           1 (Units: s)
 =================================================
  => Coupler Component                       1.312
   -- Physics & Parameterization             0.313
   -- Diagnostics Out                        0.000
  => GEOS-Chem Column                      177.033
  ===> Total Chemistry                     178.345
  => WRF                                   616.737
  ===> Total WRF-GC                        795.082
 max optd  1.9364301E+31
 max taucldi  1.9460611E-02
 max taucldw  7.0509544E-05
 Switching is not necessary as we are already
 in the right domain!
 GIGC_Chunk_Run: Running for in-PET grid #           1
 GIGC_Chunk_Run: Received new grid IM, JM, LM =          15           9
          49
 =================================================
 W R F - G C   T I M E R S
    Domain           1 (Units: s)
 =================================================
  => Coupler Component                       1.358
   -- Physics & Parameterization             0.323
   -- Diagnostics Out                        0.000
  => GEOS-Chem Column                      178.086
  ===> Total Chemistry                     179.444
  => WRF                                   634.862
  ===> Total WRF-GC                        814.306
 max optd  1.9364301E+31
 max taucldi  1.6196160E-02
 max taucldw  6.9144917E-05
 Switching is not necessary as we are already
 in the right domain!
 GIGC_Chunk_Run: Running for in-PET grid #           1
 GIGC_Chunk_Run: Received new grid IM, JM, LM =          15           9
          49
 =================================================
 W R F - G C   T I M E R S
    Domain           1 (Units: s)
 =================================================
  => Coupler Component                       1.401
   -- Physics & Parameterization             0.332
   -- Diagnostics Out                        0.000
  => GEOS-Chem Column                      179.159
  ===> Total Chemistry                     180.560
  => WRF                                   652.920
  ===> Total WRF-GC                        833.480
 max optd  1.9364301E+31
 max taucldi  1.4365057E-02
 max taucldw  6.8576490E-05
 Switching is not necessary as we are already
 in the right domain!
 GIGC_Chunk_Run: Running for in-PET grid #           1
 GIGC_Chunk_Run: Received new grid IM, JM, LM =          15           9
          49
 =================================================
 W R F - G C   T I M E R S
    Domain           1 (Units: s)
 =================================================
  => Coupler Component                       1.442
   -- Physics & Parameterization             0.342
   -- Diagnostics Out                        0.000
  => GEOS-Chem Column                      180.239
  ===> Total Chemistry                     181.681
  => WRF                                   670.974
  ===> Total WRF-GC                        852.655
 HOURLY EMISSIONS UPDATE TIME    10800.0       0.0
mediation_integrate: med_read_wrf_chem_emissions: Read emissions for time 2018-01-01_03:00:00
 max optd  1.9364301E+31
 max taucldi  1.7741438E-02
 max taucldw  6.8667003E-05
 Switching is not necessary as we are already
 in the right domain!
 GIGC_Chunk_Run: Running for in-PET grid #           1
 GIGC_Chunk_Run: Received new grid IM, JM, LM =          15           9
          49
 =================================================
 W R F - G C   T I M E R S
    Domain           1 (Units: s)
 =================================================
  => Coupler Component                       1.485
   -- Physics & Parameterization             0.351
   -- Diagnostics Out                        0.000
  => GEOS-Chem Column                      181.309
  ===> Total Chemistry                     182.794
  => WRF                                   689.073
  ===> Total WRF-GC                        871.867
 max optd  1.9364301E+31
 max taucldi  3.3732541E-02
 max taucldw  7.0764414E-05
 Switching is not necessary as we are already
 in the right domain!
 GIGC_Chunk_Run: Running for in-PET grid #           1
 GIGC_Chunk_Run: Received new grid IM, JM, LM =          15           9
          49
 =================================================
 W R F - G C   T I M E R S
    Domain           1 (Units: s)
 =================================================
  => Coupler Component                       1.530
   -- Physics & Parameterization             0.361
   -- Diagnostics Out                        0.000
  => GEOS-Chem Column                      182.372
  ===> Total Chemistry                     183.902
  => WRF                                   707.138
  ===> Total WRF-GC                        891.039
 max optd  1.9364301E+31
 max taucldi  4.8540987E-02
 max taucldw  7.5942582E-05
 Switching is not necessary as we are already
 in the right domain!
 GIGC_Chunk_Run: Running for in-PET grid #           1
 GIGC_Chunk_Run: Received new grid IM, JM, LM =          15           9
          49
 =================================================
 W R F - G C   T I M E R S
    Domain           1 (Units: s)
 =================================================
  => Coupler Component                       1.569
   -- Physics & Parameterization             0.370
   -- Diagnostics Out                        0.000
  => GEOS-Chem Column                      183.455
  ===> Total Chemistry                     185.023
  => WRF                                   725.237
  ===> Total WRF-GC                        910.260
 max optd  1.9364301E+31
 max taucldi  9.6635424E-02
 max taucldw  8.0442493E-05
 Switching is not necessary as we are already
 in the right domain!
 GIGC_Chunk_Run: Running for in-PET grid #           1
 GIGC_Chunk_Run: Received new grid IM, JM, LM =          15           9
          49
 =================================================
 W R F - G C   T I M E R S
    Domain           1 (Units: s)
 =================================================
  => Coupler Component                       1.611
   -- Physics & Parameterization             0.380
   -- Diagnostics Out                        0.000
  => GEOS-Chem Column                      184.526
  ===> Total Chemistry                     186.137
  => WRF                                   743.293
  ===> Total WRF-GC                        929.429
 max optd  1.9364301E+31
 max taucldi  0.1447207    
 max taucldw  8.3789433E-05
 Switching is not necessary as we are already
 in the right domain!
 GIGC_Chunk_Run: Running for in-PET grid #           1
 GIGC_Chunk_Run: Received new grid IM, JM, LM =          15           9
          49
 =================================================
 W R F - G C   T I M E R S
    Domain           1 (Units: s)
 =================================================
  => Coupler Component                       1.650
   -- Physics & Parameterization             0.389
   -- Diagnostics Out                        0.000
  => GEOS-Chem Column                      185.610
  ===> Total Chemistry                     187.260
  => WRF                                   761.330
  ===> Total WRF-GC                        948.590
 max optd  1.9364301E+31
 max taucldi  0.1749953    
 max taucldw  8.6245840E-05
 Switching is not necessary as we are already
 in the right domain!
 GIGC_Chunk_Run: Running for in-PET grid #           1
 GIGC_Chunk_Run: Received new grid IM, JM, LM =          15           9
          49
 =================================================
 W R F - G C   T I M E R S
    Domain           1 (Units: s)
 =================================================
  => Coupler Component                       1.690
   -- Physics & Parameterization             0.399
   -- Diagnostics Out                        0.000
  => GEOS-Chem Column                      186.654
  ===> Total Chemistry                     188.344
  => WRF                                   779.666
  ===> Total WRF-GC                        968.010
 max optd  1.9364301E+31
 max taucldi  0.2115670    
 max taucldw  8.8001798E-05
 Switching is not necessary as we are already
 in the right domain!
 GIGC_Chunk_Run: Running for in-PET grid #           1
 GIGC_Chunk_Run: Received new grid IM, JM, LM =          15           9
          49
 =================================================
 W R F - G C   T I M E R S
    Domain           1 (Units: s)
 =================================================
  => Coupler Component                       1.733
   -- Physics & Parameterization             0.408
   -- Diagnostics Out                        0.000
  => GEOS-Chem Column                      187.724
  ===> Total Chemistry                     189.457
  => WRF                                   797.820
  ===> Total WRF-GC                        987.277
 max optd  1.9364301E+31
 max taucldi  0.2383018    
 max taucldw  8.9250811E-05
 Switching is not necessary as we are already
 in the right domain!
 GIGC_Chunk_Run: Running for in-PET grid #           1
 GIGC_Chunk_Run: Received new grid IM, JM, LM =          15           9
          49
 =================================================
 W R F - G C   T I M E R S
    Domain           1 (Units: s)
 =================================================
  => Coupler Component                       1.775
   -- Physics & Parameterization             0.418
   -- Diagnostics Out                        0.000
  => GEOS-Chem Column                      188.774
  ===> Total Chemistry                     190.550
  => WRF                                   815.856
  ===> Total WRF-GC                       1006.406
 max optd  1.9364301E+31
 max taucldi  0.2634575    
 max taucldw  9.0093541E-05
 Switching is not necessary as we are already
 in the right domain!
 GIGC_Chunk_Run: Running for in-PET grid #           1
 GIGC_Chunk_Run: Received new grid IM, JM, LM =          15           9
          49
 =================================================
 W R F - G C   T I M E R S
    Domain           1 (Units: s)
 =================================================
  => Coupler Component                       1.816
   -- Physics & Parameterization             0.428
   -- Diagnostics Out                        0.000
  => GEOS-Chem Column                      189.858
  ===> Total Chemistry                     191.673
  => WRF                                   834.050
  ===> Total WRF-GC                       1025.723
 max optd  1.9364301E+31
 max taucldi  0.2900355    
 max taucldw  9.0557405E-05
 Switching is not necessary as we are already
 in the right domain!
 GIGC_Chunk_Run: Running for in-PET grid #           1
 GIGC_Chunk_Run: Received new grid IM, JM, LM =          15           9
          49
 =================================================
 W R F - G C   T I M E R S
    Domain           1 (Units: s)
 =================================================
  => Coupler Component                       1.858
   -- Physics & Parameterization             0.437
   -- Diagnostics Out                        0.000
  => GEOS-Chem Column                      190.927
  ===> Total Chemistry                     192.785
  => WRF                                   852.157
  ===> Total WRF-GC                       1044.942
 max optd  1.9364301E+31
 max taucldi  0.3077414    
 max taucldw  9.0682668E-05
 Switching is not necessary as we are already
 in the right domain!
 GIGC_Chunk_Run: Running for in-PET grid #           1
 GIGC_Chunk_Run: Received new grid IM, JM, LM =          15           9
          49
 =================================================
 W R F - G C   T I M E R S
    Domain           1 (Units: s)
 =================================================
  => Coupler Component                       1.897
   -- Physics & Parameterization             0.447
   -- Diagnostics Out                        0.000
  => GEOS-Chem Column                      192.018
  ===> Total Chemistry                     193.916
  => WRF                                   870.234
  ===> Total WRF-GC                       1064.149
 max optd  1.9364301E+31
 max taucldi  0.3347695    
 max taucldw  9.0515670E-05
 Switching is not necessary as we are already
 in the right domain!
 GIGC_Chunk_Run: Running for in-PET grid #           1
 GIGC_Chunk_Run: Received new grid IM, JM, LM =          15           9
          49
 =================================================
 W R F - G C   T I M E R S
    Domain           1 (Units: s)
 =================================================
  => Coupler Component                       1.938
   -- Physics & Parameterization             0.456
   -- Diagnostics Out                        0.000
  => GEOS-Chem Column                      193.099
  ===> Total Chemistry                     195.037
  => WRF                                   888.339
  ===> Total WRF-GC                       1083.376
 HOURLY EMISSIONS UPDATE TIME    14400.0       0.0
mediation_integrate: med_read_wrf_chem_emissions: Read emissions for time 2018-01-01_04:00:00
 max optd  1.9364301E+31
 max taucldi  0.3558839    
 max taucldw  9.0032649E-05
 Switching is not necessary as we are already
 in the right domain!
 GIGC_Chunk_Run: Running for in-PET grid #           1
 GIGC_Chunk_Run: Received new grid IM, JM, LM =          15           9
          49
 =================================================
 W R F - G C   T I M E R S
    Domain           1 (Units: s)
 =================================================
  => Coupler Component                       1.976
   -- Physics & Parameterization             0.466
   -- Diagnostics Out                        0.000
  => GEOS-Chem Column                      194.192
  ===> Total Chemistry                     196.168
  => WRF                                   906.453
  ===> Total WRF-GC                       1102.621
 max optd  1.9364301E+31
 max taucldi  0.3632753    
 max taucldw  8.9208312E-05
 Switching is not necessary as we are already
 in the right domain!
 GIGC_Chunk_Run: Running for in-PET grid #           1
 GIGC_Chunk_Run: Received new grid IM, JM, LM =          15           9
          49
 =================================================
 W R F - G C   T I M E R S
    Domain           1 (Units: s)
 =================================================
  => Coupler Component                       2.017
   -- Physics & Parameterization             0.475
   -- Diagnostics Out                        0.000
  => GEOS-Chem Column                      195.274
  ===> Total Chemistry                     197.290
  => WRF                                   924.546
  ===> Total WRF-GC                       1121.836
 max optd  1.9364301E+31
 max taucldi  0.3610978    
 max taucldw  8.8040360E-05
 Switching is not necessary as we are already
 in the right domain!
 GIGC_Chunk_Run: Running for in-PET grid #           1
 GIGC_Chunk_Run: Received new grid IM, JM, LM =          15           9
          49
 =================================================
 W R F - G C   T I M E R S
    Domain           1 (Units: s)
 =================================================
  => Coupler Component                       2.056
   -- Physics & Parameterization             0.485
   -- Diagnostics Out                        0.000
  => GEOS-Chem Column                      196.356
  ===> Total Chemistry                     198.412
  => WRF                                   942.740
  ===> Total WRF-GC                       1141.152
 max optd  1.9364301E+31
 max taucldi  0.3542152    
 max taucldw  8.9097506E-05
 Switching is not necessary as we are already
 in the right domain!
 GIGC_Chunk_Run: Running for in-PET grid #           1
 GIGC_Chunk_Run: Received new grid IM, JM, LM =          15           9
          49
 =================================================
 W R F - G C   T I M E R S
    Domain           1 (Units: s)
 =================================================
  => Coupler Component                       2.096
   -- Physics & Parameterization             0.494
   -- Diagnostics Out                        0.000
  => GEOS-Chem Column                      197.443
  ===> Total Chemistry                     199.539
  => WRF                                   960.819
  ===> Total WRF-GC                       1160.358
 max optd  1.9364301E+31
 max taucldi  0.3478859    
 max taucldw  8.9831337E-05
 Switching is not necessary as we are already
 in the right domain!
 GIGC_Chunk_Run: Running for in-PET grid #           1
 GIGC_Chunk_Run: Received new grid IM, JM, LM =          15           9
          49
 =================================================
 W R F - G C   T I M E R S
    Domain           1 (Units: s)
 =================================================
  => Coupler Component                       2.135
   -- Physics & Parameterization             0.504
   -- Diagnostics Out                        0.000
  => GEOS-Chem Column                      198.541
  ===> Total Chemistry                     200.676
  => WRF                                   978.940
  ===> Total WRF-GC                       1179.617
 max optd  1.9364301E+31
 max taucldi  0.3578569    
 max taucldw  9.0135218E-05
 Switching is not necessary as we are already
 in the right domain!
 GIGC_Chunk_Run: Running for in-PET grid #           1
 GIGC_Chunk_Run: Received new grid IM, JM, LM =          15           9
          49
 =================================================
 W R F - G C   T I M E R S
    Domain           1 (Units: s)
 =================================================
  => Coupler Component                       2.173
   -- Physics & Parameterization             0.513
   -- Diagnostics Out                        0.000
  => GEOS-Chem Column                      199.621
  ===> Total Chemistry                     201.794
  => WRF                                   997.038
  ===> Total WRF-GC                       1198.832
 max optd  1.9364301E+31
 max taucldi  0.3696277    
 max taucldw  8.9955560E-05
 Switching is not necessary as we are already
 in the right domain!
 GIGC_Chunk_Run: Running for in-PET grid #           1
 GIGC_Chunk_Run: Received new grid IM, JM, LM =          15           9
          49
 =================================================
 W R F - G C   T I M E R S
    Domain           1 (Units: s)
 =================================================
  => Coupler Component                       2.213
   -- Physics & Parameterization             0.523
   -- Diagnostics Out                        0.000
  => GEOS-Chem Column                      200.718
  ===> Total Chemistry                     202.931
  => WRF                                  1015.201
  ===> Total WRF-GC                       1218.133
 max optd  1.9364301E+31
 max taucldi  0.3791825    
 max taucldw  8.9369052E-05
 Switching is not necessary as we are already
 in the right domain!
 GIGC_Chunk_Run: Running for in-PET grid #           1
 GIGC_Chunk_Run: Received new grid IM, JM, LM =          15           9
          49
 =================================================
 W R F - G C   T I M E R S
    Domain           1 (Units: s)
 =================================================
  => Coupler Component                       2.250
   -- Physics & Parameterization             0.533
   -- Diagnostics Out                        0.000
  => GEOS-Chem Column                      201.809
  ===> Total Chemistry                     204.059
  => WRF                                  1033.264
  ===> Total WRF-GC                       1237.323
 max optd  1.9364301E+31
 max taucldi  0.3821892    
 max taucldw  8.8468500E-05
 Switching is not necessary as we are already
 in the right domain!
 GIGC_Chunk_Run: Running for in-PET grid #           1
 GIGC_Chunk_Run: Received new grid IM, JM, LM =          15           9
          49
 =================================================
 W R F - G C   T I M E R S
    Domain           1 (Units: s)
 =================================================
  => Coupler Component                       2.288
   -- Physics & Parameterization             0.542
   -- Diagnostics Out                        0.000
  => GEOS-Chem Column                      202.894
  ===> Total Chemistry                     205.181
  => WRF                                  1051.371
  ===> Total WRF-GC                       1256.553
 max optd  1.9364301E+31
 max taucldi  0.3732107    
 max taucldw  8.7266388E-05
 Switching is not necessary as we are already
 in the right domain!
 GIGC_Chunk_Run: Running for in-PET grid #           1
 GIGC_Chunk_Run: Received new grid IM, JM, LM =          15           9
          49
 =================================================
 W R F - G C   T I M E R S
    Domain           1 (Units: s)
 =================================================
  => Coupler Component                       2.325
   -- Physics & Parameterization             0.552
   -- Diagnostics Out                        0.000
  => GEOS-Chem Column                      203.989
  ===> Total Chemistry                     206.314
  => WRF                                  1069.463
  ===> Total WRF-GC                       1275.777
 max optd  1.9364301E+31
 max taucldi  0.3663424    
 max taucldw  8.5790569E-05
 Switching is not necessary as we are already
 in the right domain!
 GIGC_Chunk_Run: Running for in-PET grid #           1
 GIGC_Chunk_Run: Received new grid IM, JM, LM =          15           9
          49
 =================================================
 W R F - G C   T I M E R S
    Domain           1 (Units: s)
 =================================================
  => Coupler Component                       2.365
   -- Physics & Parameterization             0.561
   -- Diagnostics Out                        0.000
  => GEOS-Chem Column                      205.092
  ===> Total Chemistry                     207.457
  => WRF                                  1087.519
  ===> Total WRF-GC                       1294.976
 max optd  1.9364301E+31
 max taucldi  0.3862884    
 max taucldw  8.4059320E-05
 Switching is not necessary as we are already
 in the right domain!
 GIGC_Chunk_Run: Running for in-PET grid #           1
 GIGC_Chunk_Run: Received new grid IM, JM, LM =          15           9
          49
 =================================================
 W R F - G C   T I M E R S
    Domain           1 (Units: s)
 =================================================
  => Coupler Component                       2.399
   -- Physics & Parameterization             0.571
   -- Diagnostics Out                        0.000
  => GEOS-Chem Column                      206.175
  ===> Total Chemistry                     208.575
  => WRF                                  1105.525
  ===> Total WRF-GC                       1314.099
 HOURLY EMISSIONS UPDATE TIME    18000.0       0.0
mediation_integrate: med_read_wrf_chem_emissions: Read emissions for time 2018-01-01_05:00:00
 max optd  1.9364301E+31
 max taucldi  0.4147467    
 max taucldw  8.2113293E-05
 Switching is not necessary as we are already
 in the right domain!
 GIGC_Chunk_Run: Running for in-PET grid #           1
 GIGC_Chunk_Run: Received new grid IM, JM, LM =          15           9
          49
 =================================================
 W R F - G C   T I M E R S
    Domain           1 (Units: s)
 =================================================
  => Coupler Component                       2.438
   -- Physics & Parameterization             0.581
   -- Diagnostics Out                        0.000
  => GEOS-Chem Column                      207.274
  ===> Total Chemistry                     209.712
  => WRF                                  1123.662
  ===> Total WRF-GC                       1333.375
 max optd  1.9364301E+31
 max taucldi  0.4382511    
 max taucldw  8.0001126E-05
 Switching is not necessary as we are already
 in the right domain!
 GIGC_Chunk_Run: Running for in-PET grid #           1
 GIGC_Chunk_Run: Received new grid IM, JM, LM =          15           9
          49
 =================================================
 W R F - G C   T I M E R S
    Domain           1 (Units: s)
 =================================================
  => Coupler Component                       2.475
   -- Physics & Parameterization             0.591
   -- Diagnostics Out                        0.000
  => GEOS-Chem Column                      208.372
  ===> Total Chemistry                     210.847
  => WRF                                  1141.716
  ===> Total WRF-GC                       1352.563
 max optd  1.9364301E+31
 max taucldi  0.4501018    
 max taucldw  7.7813238E-05
 Switching is not necessary as we are already
 in the right domain!
 GIGC_Chunk_Run: Running for in-PET grid #           1
 GIGC_Chunk_Run: Received new grid IM, JM, LM =          15           9
          49
 =================================================
 W R F - G C   T I M E R S
    Domain           1 (Units: s)
 =================================================
  => Coupler Component                       2.512
   -- Physics & Parameterization             0.600
   -- Diagnostics Out                        0.000
  => GEOS-Chem Column                      209.458
  ===> Total Chemistry                     211.971
  => WRF                                  1159.776
  ===> Total WRF-GC                       1371.747
 max optd  1.9364301E+31
 max taucldi  0.4511644    
 max taucldw  7.6079305E-05
 Switching is not necessary as we are already
 in the right domain!
 GIGC_Chunk_Run: Running for in-PET grid #           1
 GIGC_Chunk_Run: Received new grid IM, JM, LM =          15           9
          49
 =================================================
 W R F - G C   T I M E R S
    Domain           1 (Units: s)
 =================================================
  => Coupler Component                       2.551
   -- Physics & Parameterization             0.610
   -- Diagnostics Out                        0.000
  => GEOS-Chem Column                      210.561
  ===> Total Chemistry                     213.111
  => WRF                                  1177.885
  ===> Total WRF-GC                       1390.997
 max optd  1.9364301E+31
 max taucldi  0.4478958    
 max taucldw  7.4788302E-05
 Switching is not necessary as we are already
 in the right domain!
 GIGC_Chunk_Run: Running for in-PET grid #           1
 GIGC_Chunk_Run: Received new grid IM, JM, LM =          15           9
          49
 =================================================
 W R F - G C   T I M E R S
    Domain           1 (Units: s)
 =================================================
  => Coupler Component                       2.590
   -- Physics & Parameterization             0.619
   -- Diagnostics Out                        0.000
  => GEOS-Chem Column                      211.661
  ===> Total Chemistry                     214.251
  => WRF                                  1196.013
  ===> Total WRF-GC                       1410.264
 max optd  1.9364301E+31
 max taucldi  0.4465551    
 max taucldw  7.3453128E-05
 Switching is not necessary as we are already
 in the right domain!
 GIGC_Chunk_Run: Running for in-PET grid #           1
 GIGC_Chunk_Run: Received new grid IM, JM, LM =          15           9
          49
 =================================================
 W R F - G C   T I M E R S
    Domain           1 (Units: s)
 =================================================
  => Coupler Component                       2.626
   -- Physics & Parameterization             0.629
   -- Diagnostics Out                        0.000
  => GEOS-Chem Column                      212.751
  ===> Total Chemistry                     215.376
  => WRF                                  1214.055
  ===> Total WRF-GC                       1429.431
 max optd  1.9364301E+31
 max taucldi  0.4456221    
 max taucldw  7.2138180E-05
 Switching is not necessary as we are already
 in the right domain!
 GIGC_Chunk_Run: Running for in-PET grid #           1
 GIGC_Chunk_Run: Received new grid IM, JM, LM =          15           9
          49
 =================================================
 W R F - G C   T I M E R S
    Domain           1 (Units: s)
 =================================================
  => Coupler Component                       2.668
   -- Physics & Parameterization             0.639
   -- Diagnostics Out                        0.000
  => GEOS-Chem Column                      213.834
  ===> Total Chemistry                     216.502
  => WRF                                  1232.221
  ===> Total WRF-GC                       1448.723
 max optd  1.9364301E+31
 max taucldi  0.4436263    
 max taucldw  7.0857939E-05
 Switching is not necessary as we are already
 in the right domain!
 GIGC_Chunk_Run: Running for in-PET grid #           1
 GIGC_Chunk_Run: Received new grid IM, JM, LM =          15           9
          49
 =================================================
 W R F - G C   T I M E R S
    Domain           1 (Units: s)
 =================================================
  => Coupler Component                       2.707
   -- Physics & Parameterization             0.648
   -- Diagnostics Out                        0.000
  => GEOS-Chem Column                      214.933
  ===> Total Chemistry                     217.640
  => WRF                                  1250.284
  ===> Total WRF-GC                       1467.924
 max optd  1.9364301E+31
 max taucldi  0.4279366    
 max taucldw  6.9630274E-05
 Switching is not necessary as we are already
 in the right domain!
 GIGC_Chunk_Run: Running for in-PET grid #           1
 GIGC_Chunk_Run: Received new grid IM, JM, LM =          15           9
          49
 =================================================
 W R F - G C   T I M E R S
    Domain           1 (Units: s)
 =================================================
  => Coupler Component                       2.744
   -- Physics & Parameterization             0.658
   -- Diagnostics Out                        0.000
  => GEOS-Chem Column                      216.028
  ===> Total Chemistry                     218.772
  => WRF                                  1268.410
  ===> Total WRF-GC                       1487.182
 max optd  1.9364301E+31
 max taucldi  0.4088538    
 max taucldw  6.8449968E-05
 Switching is not necessary as we are already
 in the right domain!
 GIGC_Chunk_Run: Running for in-PET grid #           1
 GIGC_Chunk_Run: Received new grid IM, JM, LM =          15           9
          49
 =================================================
 W R F - G C   T I M E R S
    Domain           1 (Units: s)
 =================================================
  => Coupler Component                       2.783
   -- Physics & Parameterization             0.667
   -- Diagnostics Out                        0.000
  => GEOS-Chem Column                      217.127
  ===> Total Chemistry                     219.910
  => WRF                                  1286.767
  ===> Total WRF-GC                       1506.677
 max optd  1.9364301E+31
 max taucldi  0.3957044    
 max taucldw  6.7329900E-05
 Switching is not necessary as we are already
 in the right domain!
 GIGC_Chunk_Run: Running for in-PET grid #           1
 GIGC_Chunk_Run: Received new grid IM, JM, LM =          15           9
          49
 =================================================
 W R F - G C   T I M E R S
    Domain           1 (Units: s)
 =================================================
  => Coupler Component                       2.822
   -- Physics & Parameterization             0.677
   -- Diagnostics Out                        0.000
  => GEOS-Chem Column                      218.229
  ===> Total Chemistry                     221.051
  => WRF                                  1304.853
  ===> Total WRF-GC                       1525.903
 max optd  1.9364301E+31
 max taucldi  0.3698568    
 max taucldw  6.6278713E-05
 Switching is not necessary as we are already
 in the right domain!
 GIGC_Chunk_Run: Running for in-PET grid #           1
 GIGC_Chunk_Run: Received new grid IM, JM, LM =          15           9
          49
 =================================================
 W R F - G C   T I M E R S
    Domain           1 (Units: s)
 =================================================
  => Coupler Component                       2.853
   -- Physics & Parameterization             0.686
   -- Diagnostics Out                        0.000
  => GEOS-Chem Column                      219.321
  ===> Total Chemistry                     222.174
  => WRF                                  1322.932
  ===> Total WRF-GC                       1545.106
 HOURLY EMISSIONS UPDATE TIME    21600.0       0.0
mediation_integrate: med_read_wrf_chem_emissions: Read emissions for time 2018-01-01_06:00:00
 max optd  1.9364301E+31
 max taucldi  0.3501324    
 max taucldw  6.5302767E-05
 Switching is not necessary as we are already
 in the right domain!
 GIGC_Chunk_Run: Running for in-PET grid #           1
 GIGC_Chunk_Run: Received new grid IM, JM, LM =          15           9
          49
 =================================================
 W R F - G C   T I M E R S
    Domain           1 (Units: s)
 =================================================
  => Coupler Component                       2.892
   -- Physics & Parameterization             0.696
   -- Diagnostics Out                        0.000
  => GEOS-Chem Column                      220.430
  ===> Total Chemistry                     223.322
  => WRF                                  1781.574
  ===> Total WRF-GC                       2004.896
 max optd  1.9364301E+31
 max taucldi  0.3362804    
 max taucldw  6.4433945E-05
 Switching is not necessary as we are already
 in the right domain!
 GIGC_Chunk_Run: Running for in-PET grid #           1
 GIGC_Chunk_Run: Received new grid IM, JM, LM =          15           9
          49
 =================================================
 W R F - G C   T I M E R S
    Domain           1 (Units: s)
 =================================================
  => Coupler Component                       2.932
   -- Physics & Parameterization             0.705
   -- Diagnostics Out                        0.000
  => GEOS-Chem Column                      221.538
  ===> Total Chemistry                     224.470
  => WRF                                  1799.661
  ===> Total WRF-GC                       2024.131
 max optd  1.9364301E+31
 max taucldi  0.4270481    
 max taucldw  6.4123378E-05
 Switching is not necessary as we are already
 in the right domain!
 GIGC_Chunk_Run: Running for in-PET grid #           1
 GIGC_Chunk_Run: Received new grid IM, JM, LM =          15           9
          49
 =================================================
 W R F - G C   T I M E R S
    Domain           1 (Units: s)
 =================================================
  => Coupler Component                       2.967
   -- Physics & Parameterization             0.715
   -- Diagnostics Out                        0.000
  => GEOS-Chem Column                      222.633
  ===> Total Chemistry                     225.600
  => WRF                                  1817.876
  ===> Total WRF-GC                       2043.476
 max optd  1.9364301E+31
 max taucldi  0.4888521    
 max taucldw  6.5141125E-05
 Switching is not necessary as we are already
 in the right domain!
 GIGC_Chunk_Run: Running for in-PET grid #           1
 GIGC_Chunk_Run: Received new grid IM, JM, LM =          15           9
          49
 =================================================
 W R F - G C   T I M E R S
    Domain           1 (Units: s)
 =================================================
  => Coupler Component                       3.005
[...]
  => GEOS-Chem Column                      272.196
  ===> Total Chemistry                     276.911
  => WRF                                  2633.807
  ===> Total WRF-GC                       2910.718
 HOURLY EMISSIONS UPDATE TIME    36000.0       0.0
mediation_integrate: med_read_wrf_chem_emissions: Read emissions for time 2018-01-01_10:00:00
 max optd  1.9364301E+31
 max taucldi  1.5937479E-02
 max taucldw  8.4017316E-05
 Switching is not necessary as we are already
 in the right domain!
 GIGC_Chunk_Run: Running for in-PET grid #           1
 GIGC_Chunk_Run: Received new grid IM, JM, LM =          15           9
          49
 =================================================
 W R F - G C   T I M E R S
    Domain           1 (Units: s)
 =================================================
  => Coupler Component                       4.753
   -- Physics & Parameterization             1.149
   -- Diagnostics Out                        0.000
  => GEOS-Chem Column                      273.298
  ===> Total Chemistry                     278.051
  => WRF                                  2652.002
  ===> Total WRF-GC                       2930.053
 max optd  1.9364301E+31
 max taucldi  1.5587093E-02
 max taucldw  8.5288761E-05
 Switching is not necessary as we are already
 in the right domain!
 GIGC_Chunk_Run: Running for in-PET grid #           1
 GIGC_Chunk_Run: Received new grid IM, JM, LM =          15           9
          49
 =================================================
 W R F - G C   T I M E R S
    Domain           1 (Units: s)
 =================================================
  => Coupler Component                       4.790
   -- Physics & Parameterization             1.159
   -- Diagnostics Out                        0.000
  => GEOS-Chem Column                      274.392
  ===> Total Chemistry                     279.182
  => WRF                                  2670.107
  ===> Total WRF-GC                       2949.288
 max optd  1.9364301E+31
 max taucldi  1.4930927E-02
 max taucldw  8.6554093E-05
 Switching is not necessary as we are already
 in the right domain!
 GIGC_Chunk_Run: Running for in-PET grid #           1
 GIGC_Chunk_Run: Received new grid IM, JM, LM =          15           9
          49
 =================================================
 W R F - G C   T I M E R S
    Domain           1 (Units: s)
 =================================================
  => Coupler Component                       4.827
   -- Physics & Parameterization             1.168
   -- Diagnostics Out                        0.000
  => GEOS-Chem Column                      275.493
  ===> Total Chemistry                     280.321
  => WRF                                  2688.214
  ===> Total WRF-GC                       2968.534
 max optd  1.9364301E+31
 max taucldi  1.4325355E-02
 max taucldw  8.7748871E-05
 Switching is not necessary as we are already
 in the right domain!
 GIGC_Chunk_Run: Running for in-PET grid #           1
 GIGC_Chunk_Run: Received new grid IM, JM, LM =          15           9
          49
 =================================================
 W R F - G C   T I M E R S
    Domain           1 (Units: s)
 =================================================
  => Coupler Component                       4.870
   -- Physics & Parameterization             1.178
   -- Diagnostics Out                        0.000
  => GEOS-Chem Column                      276.597
  ===> Total Chemistry                     281.466
  => WRF                                  2706.405
  ===> Total WRF-GC                       2987.871
 max optd  1.9364301E+31
 max taucldi  1.3212714E-02
 max taucldw  8.8835339E-05
 Switching is not necessary as we are already
 in the right domain!
 GIGC_Chunk_Run: Running for in-PET grid #           1
 GIGC_Chunk_Run: Received new grid IM, JM, LM =          15           9
          49
 =================================================
 W R F - G C   T I M E R S
    Domain           1 (Units: s)
 =================================================
  => Coupler Component                       4.912
   -- Physics & Parameterization             1.187
   -- Diagnostics Out                        0.000
  => GEOS-Chem Column                      277.696
  ===> Total Chemistry                     282.608
  => WRF                                  2724.534
  ===> Total WRF-GC                       3007.142
 max optd  1.9364301E+31
 max taucldi  1.0232085E-02
 max taucldw  8.9805289E-05
 Switching is not necessary as we are already
 in the right domain!
 GIGC_Chunk_Run: Running for in-PET grid #           1
 GIGC_Chunk_Run: Received new grid IM, JM, LM =          15           9
          49
 =================================================
 W R F - G C   T I M E R S
    Domain           1 (Units: s)
 =================================================
  => Coupler Component                       4.952
   -- Physics & Parameterization             1.197
   -- Diagnostics Out                        0.000
  => GEOS-Chem Column                      278.803
  ===> Total Chemistry                     283.755
  => WRF                                  2742.589
  ===> Total WRF-GC                       3026.344
 max optd  1.9364301E+31
 max taucldi  5.5198008E-03
 max taucldw  9.0675887E-05
 Switching is not necessary as we are already
 in the right domain!
 GIGC_Chunk_Run: Running for in-PET grid #           1
 GIGC_Chunk_Run: Received new grid IM, JM, LM =          15           9
          49
 =================================================
 W R F - G C   T I M E R S
    Domain           1 (Units: s)
 =================================================
  => Coupler Component                       4.994
   -- Physics & Parameterization             1.206
   -- Diagnostics Out                        0.000
  => GEOS-Chem Column                      279.902
  ===> Total Chemistry                     284.896
  => WRF                                  2760.717
  ===> Total WRF-GC                       3045.613
 max optd  1.9364301E+31
 max taucldi  2.7857467E-03
 max taucldw  9.1532842E-05
 Switching is not necessary as we are already
 in the right domain!
 GIGC_Chunk_Run: Running for in-PET grid #           1
 GIGC_Chunk_Run: Received new grid IM, JM, LM =          15           9
          49
 =================================================
 W R F - G C   T I M E R S
    Domain           1 (Units: s)
 =================================================
  => Coupler Component                       5.033
   -- Physics & Parameterization             1.215
   -- Diagnostics Out                        0.000
  => GEOS-Chem Column                      281.001
  ===> Total Chemistry                     286.034
  => WRF                                  2778.830
  ===> Total WRF-GC                       3064.864
 max optd  1.9364301E+31
 max taucldi  9.1454125E-04
 max taucldw  9.2451228E-05
 Switching is not necessary as we are already
 in the right domain!
 GIGC_Chunk_Run: Running for in-PET grid #           1
 GIGC_Chunk_Run: Received new grid IM, JM, LM =          15           9
          49
 =================================================
 W R F - G C   T I M E R S
    Domain           1 (Units: s)
 =================================================
  => Coupler Component                       5.071
   -- Physics & Parameterization             1.225
   -- Diagnostics Out                        0.000
  => GEOS-Chem Column                      282.095
  ===> Total Chemistry                     287.166
  => WRF                                  2796.923
  ===> Total WRF-GC                       3084.088
 max optd  1.9364301E+31
 max taucldi  2.2856436E-04
 max taucldw  9.3381510E-05
 Switching is not necessary as we are already
 in the right domain!
 GIGC_Chunk_Run: Running for in-PET grid #           1
 GIGC_Chunk_Run: Received new grid IM, JM, LM =          15           9
          49
 =================================================
 W R F - G C   T I M E R S
    Domain           1 (Units: s)
 =================================================
  => Coupler Component                       5.111
   -- Physics & Parameterization             1.235
   -- Diagnostics Out                        0.000
  => GEOS-Chem Column                      283.191
  ===> Total Chemistry                     288.301
  => WRF                                  2815.094
  ===> Total WRF-GC                       3103.396
 max optd  1.9364301E+31
 max taucldi  5.5811841E-05
 max taucldw  9.4293304E-05
 Switching is not necessary as we are already
 in the right domain!
 GIGC_Chunk_Run: Running for in-PET grid #           1
 GIGC_Chunk_Run: Received new grid IM, JM, LM =          15           9
          49
 =================================================
 W R F - G C   T I M E R S
    Domain           1 (Units: s)
 =================================================
  => Coupler Component                       5.150
   -- Physics & Parameterization             1.244
   -- Diagnostics Out                        0.000
  => GEOS-Chem Column                      284.282
  ===> Total Chemistry                     289.432
  => WRF                                  2833.197
  ===> Total WRF-GC                       3122.629
 max optd  1.9364301E+31
 max taucldi  2.8029202E-05
 max taucldw  9.5184536E-05
 Switching is not necessary as we are already
 in the right domain!
 GIGC_Chunk_Run: Running for in-PET grid #           1
 GIGC_Chunk_Run: Received new grid IM, JM, LM =          15           9
          49
 =================================================
 W R F - G C   T I M E R S
    Domain           1 (Units: s)
 =================================================
  => Coupler Component                       5.191
   -- Physics & Parameterization             1.254
   -- Diagnostics Out                        0.000
  => GEOS-Chem Column                      285.388
  ===> Total Chemistry                     290.578
  => WRF                                  2851.367
  ===> Total WRF-GC                       3141.945
 HOURLY EMISSIONS UPDATE TIME    39600.0       0.0
mediation_integrate: med_read_wrf_chem_emissions: Read emissions for time 2018-01-01_11:00:00
 max optd  1.9364301E+31
 max taucldi  2.8143286E-05
 max taucldw  9.6053438E-05
 Switching is not necessary as we are already
 in the right domain!
 GIGC_Chunk_Run: Running for in-PET grid #           1
 GIGC_Chunk_Run: Received new grid IM, JM, LM =          15           9
          49
 =================================================
 W R F - G C   T I M E R S
    Domain           1 (Units: s)
 =================================================
  => Coupler Component                       5.231
   -- Physics & Parameterization             1.263
   -- Diagnostics Out                        0.000
  => GEOS-Chem Column                      286.484
  ===> Total Chemistry                     291.715
  => WRF                                  2869.502
  ===> Total WRF-GC                       3161.217
 max optd  1.9364301E+31
 max taucldi  2.8239157E-05
 max taucldw  9.6892749E-05
 Switching is not necessary as we are already
 in the right domain!
 GIGC_Chunk_Run: Running for in-PET grid #           1
 GIGC_Chunk_Run: Received new grid IM, JM, LM =          15           9
          49
 =================================================
 W R F - G C   T I M E R S
    Domain           1 (Units: s)
 =================================================
  => Coupler Component                       5.270
   -- Physics & Parameterization             1.273
   -- Diagnostics Out                        0.000
  => GEOS-Chem Column                      287.578
  ===> Total Chemistry                     292.848
  => WRF                                  2887.573
  ===> Total WRF-GC                       3180.421
 max optd  1.9364301E+31
 max taucldi  2.8325392E-05
 max taucldw  9.7693031E-05
 Switching is not necessary as we are already
 in the right domain!
 GIGC_Chunk_Run: Running for in-PET grid #           1
 GIGC_Chunk_Run: Received new grid IM, JM, LM =          15           9
          49
 =================================================
 W R F - G C   T I M E R S
    Domain           1 (Units: s)
 =================================================
  => Coupler Component                       5.309
   -- Physics & Parameterization             1.283
   -- Diagnostics Out                        0.000
  => GEOS-Chem Column                      288.671
  ===> Total Chemistry                     293.979
  => WRF                                  2905.773
  ===> Total WRF-GC                       3199.753
 max optd  1.9364301E+31
 max taucldi  2.8406821E-05
 max taucldw  9.8436562E-05
 Switching is not necessary as we are already
 in the right domain!
 GIGC_Chunk_Run: Running for in-PET grid #           1
 GIGC_Chunk_Run: Received new grid IM, JM, LM =          15           9
          49
 =================================================
 W R F - G C   T I M E R S
    Domain           1 (Units: s)
 =================================================
  => Coupler Component                       5.349
   -- Physics & Parameterization             1.292
   -- Diagnostics Out                        0.000
  => GEOS-Chem Column                      289.785
  ===> Total Chemistry                     295.134
  => WRF                                  2924.021
  ===> Total WRF-GC                       3219.155
 max optd  1.9364301E+31
 max taucldi  2.8481792E-05
 max taucldw  9.9121709E-05
 Switching is not necessary as we are already
 in the right domain!
 GIGC_Chunk_Run: Running for in-PET grid #           1
 GIGC_Chunk_Run: Received new grid IM, JM, LM =          15           9
          49
 =================================================
 W R F - G C   T I M E R S
    Domain           1 (Units: s)
 =================================================
  => Coupler Component                       5.387
   -- Physics & Parameterization             1.302
   -- Diagnostics Out                        0.000
  => GEOS-Chem Column                      290.883
  ===> Total Chemistry                     296.270
  => WRF                                  2942.380
  ===> Total WRF-GC                       3238.649
 max optd  1.9364301E+31
 max taucldi  2.8656757E-05
 max taucldw  9.9757883E-05
 Switching is not necessary as we are already
 in the right domain!
 GIGC_Chunk_Run: Running for in-PET grid #           1
 GIGC_Chunk_Run: Received new grid IM, JM, LM =          15           9
          49
 =================================================
 W R F - G C   T I M E R S
    Domain           1 (Units: s)
 =================================================
  => Coupler Component                       5.422
   -- Physics & Parameterization             1.311
   -- Diagnostics Out                        0.000
  => GEOS-Chem Column                      291.973
  ===> Total Chemistry                     297.395
  => WRF                                  2960.733
  ===> Total WRF-GC                       3258.128
 max optd  1.9364301E+31
 max taucldi  2.8909928E-05
 max taucldw  1.0035961E-04
 Switching is not necessary as we are already
 in the right domain!
 GIGC_Chunk_Run: Running for in-PET grid #           1
 GIGC_Chunk_Run: Received new grid IM, JM, LM =          15           9
          49
 =================================================
 W R F - G C   T I M E R S
    Domain           1 (Units: s)
 =================================================
  => Coupler Component                       5.462
   -- Physics & Parameterization             1.320
   -- Diagnostics Out                        0.000
  => GEOS-Chem Column                      293.065
  ===> Total Chemistry                     298.528
  => WRF                                  2979.243
  ===> Total WRF-GC                       3277.770
 max optd  1.9364301E+31
 max taucldi  2.9145956E-05
 max taucldw  1.0096012E-04
 Switching is not necessary as we are already
 in the right domain!
 GIGC_Chunk_Run: Running for in-PET grid #           1
 GIGC_Chunk_Run: Received new grid IM, JM, LM =          15           9
          49
 =================================================
 W R F - G C   T I M E R S
    Domain           1 (Units: s)
 =================================================
  => Coupler Component                       5.497
   -- Physics & Parameterization             1.330
   -- Diagnostics Out                        0.000
  => GEOS-Chem Column                      294.149
  ===> Total Chemistry                     299.647
  => WRF                                  2997.779
  ===> Total WRF-GC                       3297.425
 max optd  1.9364301E+31
 max taucldi  2.9361634E-05
 max taucldw  1.0161166E-04
 Switching is not necessary as we are already
 in the right domain!
 GIGC_Chunk_Run: Running for in-PET grid #           1
 GIGC_Chunk_Run: Received new grid IM, JM, LM =          15           9
          49
 =================================================
 W R F - G C   T I M E R S
    Domain           1 (Units: s)
 =================================================
  => Coupler Component                       5.534
   -- Physics & Parameterization             1.339
   -- Diagnostics Out                        0.000
  => GEOS-Chem Column                      295.239
  ===> Total Chemistry                     300.774
  => WRF                                  3016.428
  ===> Total WRF-GC                       3317.202
 max optd  1.9364301E+31
 max taucldi  2.9556149E-05
 max taucldw  1.0237271E-04
 Switching is not necessary as we are already
 in the right domain!
 GIGC_Chunk_Run: Running for in-PET grid #           1
 GIGC_Chunk_Run: Received new grid IM, JM, LM =          15           9
          49
 =================================================
 W R F - G C   T I M E R S
    Domain           1 (Units: s)
 =================================================
  => Coupler Component                       5.573
   -- Physics & Parameterization             1.349
   -- Diagnostics Out                        0.000
  => GEOS-Chem Column                      296.330
  ===> Total Chemistry                     301.903
  => WRF                                  3035.299
  ===> Total WRF-GC                       3337.202
 max optd  1.9364301E+31
 max taucldi  2.9731780E-05
 max taucldw  1.0331778E-04
 Switching is not necessary as we are already
 in the right domain!
 GIGC_Chunk_Run: Running for in-PET grid #           1
 GIGC_Chunk_Run: Received new grid IM, JM, LM =          15           9
          49
 =================================================
 W R F - G C   T I M E R S
    Domain           1 (Units: s)
 =================================================
  => Coupler Component                       5.611
   -- Physics & Parameterization             1.358
   -- Diagnostics Out                        0.000
  => GEOS-Chem Column                      297.415
  ===> Total Chemistry                     303.026
  => WRF                                  3054.073
  ===> Total WRF-GC                       3357.099
 max optd  1.9364301E+31
 max taucldi  2.9891169E-05
 max taucldw  1.0449085E-04
 Switching is not necessary as we are already
 in the right domain!
 GIGC_Chunk_Run: Running for in-PET grid #           1
 GIGC_Chunk_Run: Received new grid IM, JM, LM =          15           9
          49
 =================================================
 W R F - G C   T I M E R S
    Domain           1 (Units: s)
 =================================================
  => Coupler Component                       5.641
   -- Physics & Parameterization             1.368
   -- Diagnostics Out                        0.000
  => GEOS-Chem Column                      298.507
  ===> Total Chemistry                     304.148
  => WRF                                  3072.783
  ===> Total WRF-GC                       3376.930
d01 2018-01-01_12:00:00 wrf: SUCCESS COMPLETE WRF
