taskid: 1311 hostname: ip-172-31-4-136
Quilting with   1 groups of   0 I/O tasks.
 Ntasks in X           64 , ntasks in Y           72
--- WARNING: traj_opt is zero, but num_traj is not zero; setting num_traj to zero.
--- NOTE: sst_update is 0, setting io_form_auxinput4 = 0 and auxinput4_interval = 0 for all domains
--- NOTE: grid_fdda is 0 for domain      1, setting gfdda interval and ending time to 0 for that domain.
--- NOTE: both grid_sfdda and pxlsm_soil_nudge are 0 for domain      1, setting sgfdda interval and ending time to 0 for that domain.
--- NOTE: obs_nudge_opt is 0 for domain      1, setting obs nudging interval and ending time to 0 for that domain.
--- NOTE: bl_pbl_physics /= 4, implies mfshconv must be 0, resetting
Need MYNN PBL for icloud_bl = 1, resetting to 0
*************************************
No physics suite selected.
Physics options will be used directly from the namelist.
*************************************
--- NOTE: RRTMG radiation is in use, setting:  levsiz=59, alevsiz=12, no_src_types=6
--- NOTE: num_soil_layers has been set to      4
WRF V3.9.1.1 MODEL
 *************************************
 Parent domain
 ids,ide,jds,jde            1         950           1         650
 ims,ime,jms,jme          455         482         175         197
 ips,ipe,jps,jpe          462         475         182         190
 *************************************
DYNAMICS OPTION: Eulerian Mass Coordinate
   alloc_space_field: domain            1 ,              197508740  bytes allocated
  med_initialdata_input: calling input_input
Max map factor in domain 1 =  1.40. Scale the dt in the model accordingly.
INPUT LandUse = "USGS"
 LANDUSE TYPE = "USGS" FOUND          33  CATEGORIES           2  SEASONS WATER CATEGORY =           16  SNOW CATEGORY =           24
INITIALIZE THREE Noah LSM RELATED TABLES
*****************************************************************
  __          _______  ______       _____  _____ _    _ _____
  \ \        / /  __ \|  ____|     / ____|/ ____| |  | |  __ \
   \ \  /\  / /| |__) | |__ ______| |  __| |    | |__| | |__) |
    \ \/  \/ / |  _  /|  __|______| | |_ | |    |  __  |  ___/
     \  /\  /  | | \ \| |         | |__| | |____| |  | | |
      \/  \/   |_|  \_\_|          \_____|\_____|_|  |_|_|
*****************************************************************
         WRF-GC MODEL, VERSION 1811.11 - WRF BINDINGS
 For errors, suggestions & feedback email linhaipeng@pku.edu.cn
*****************************************************************
    This is domain            1
 ### GIGC_Stateful_Mod: Root CPU, after READ_INPUT_FILE
  Linoz Data:  O3 climatology :                  z*=10, 12, ..., 58                             2.700E-08 1.083E-05
  Linoz Data:  Temperature climatology :         z*=10, 12, ..., 58                             1.859E+02 2.904E+02
  Linoz Data:  Column O3 above box climalology : z*=10, 12, ..., 58                             7.538E-02 3.770E+02
  Linoz Data:  P-L O3 climatology (mr/s):        z*=10, 12, ..., 58                            -1.590E-10 2.835E-11
  Linoz Data:  d(P-L)/dO3 (1/s) :                z*=10, 12, ..., 58                            -8.386E-04 7.556E-09
  Linoz Data:  d(P-L)/dT (mr/K) :                z*=10, 12, ..., 58                            -5.742E-12 4.615E-14
  Linoz Data:  d(P-L)/d(column O3) (mr/DU) :     z*=10, 12, ..., 58                            -1.921E-12 5.038E-10
 ### GIGC_Stateful_Mod: Root CPU, after LINOZ_READ
 %%%%%%%%% GIGC IN-PET GRID SWITCHING HACKS %%%%%%%%%
     (Not very) Proudly brought to you by hplin      
 Some debug information:
 ID:           1
 IM, JM, LM:          14           9          49  will be set as PAR
 Allocs: CMN T GC F
 RC at entry-point:           0
 %%%%%%%%%%%%%%%%%%%%%%%%%%%%%%%%%%%%%%%%%%%%%%%%%%%%
 No need to switch HcoState for ID           1
 Exit RC:            0
 %%%%%%%%%    FINISHED GIGC_Switch_Dims    %%%%%%%%%
 GIGC_Chunk_Init: Received new grid IM, JM, LM =          14           9
          49
     ### GIGC_INIT_SIMULATION: after Input_Opt% setups
     ### GIGC_INIT_SIMULATION: after GC_Init_All
     ### GIGC_INIT_SIMULATION: after GC_Init_Extra
     ### GIGC_INIT_SIMULATION: after INIT_FJX
 # GIGC_CHUNK_MOD: after SV save, ID =           1
 WRFGC chemics_init: Following information regarding Input_Opt% (for all doms)
 After domain           1
 HPC:  T
 LPRT:  F
 DoConv:  T
 DoDryDep:  T
 DoEmis:  T
 DoChem:  T
 DoTurb:  T
 DoWetDep:  T

 tropopause_init: DONE intialized domain            1

 mediation_integrate: med_read_wrf_chem_emissions: Open file wrfchemi_00z_d01
 HOURLY EMISSIONS UPDATE TIME        0.0       0.0
mediation_integrate: med_read_wrf_chem_emissions: Read emissions for time 2018-01-01_00:00:00
open_aux_u : error opening wrffirechemi_d01_2018-01-01_00:00:00 for reading. 100
open_aux_u : error opening wrfchemi_gocart_bg_d01 for reading. 100
d01 2018-01-01_00:00:00 Input data processed for aux input   8 for domain   1
open_aux_u : error opening wrfchemv_d01 for reading. 100
 Tile Strategy is not specified. Assuming 1D-Y
WRF TILE   1 IS    462 IE    475 JS    182 JE    190
WRF NUMBER OF TILES =   1
 max optd  5.0089353E+28
 max taucldi  5.0320257E+28
 max taucldw  0.0000000E+00
 =================================================
 W R F - G C   T I M E R S
    Domain           1 (Units: s)
 =================================================
  => Coupler Component                       0.025
   -- Physics & Parameterization             0.001
   -- Diagnostics Out                        0.000
  => GEOS-Chem Column                        0.000
  ===> Total Chemistry                       0.025
  => WRF                                     0.000
  ===> Total WRF-GC                          0.025
 max optd  5.0089353E+28
 max taucldi  5.0320257E+28
 max taucldw  1.0000006E-14
 %%%%%%%%% GIGC IN-PET GRID SWITCHING HACKS %%%%%%%%%
     (Not very) Proudly brought to you by hplin      
 Some debug information:
 ID:           1
 IM, JM, LM:          14           9          49  will be set as PAR
 Allocs: CMN T GC T
 RC at entry-point:           0
 %%%%%%%%%%%%%%%%%%%%%%%%%%%%%%%%%%%%%%%%%%%%%%%%%%%%
 No need to switch HcoState for ID           1
 Debug HcoState nSpc, NX, NY, NZ         163          14           9          49
 Exit RC:            0
 %%%%%%%%%    FINISHED GIGC_Switch_Dims    %%%%%%%%%
 GIGC_Chunk_Run: Running for in-PET grid #           1
 GIGC_Chunk_Run: Received new grid IM, JM, LM =          14           9
          49
HEMCO: Opening /fsx/HEMCO/BIOFUEL/v2014-07/biofuel.geos.4x5.nc
HEMCO: Opening /fsx/HEMCO/BROMINE/v2015-02/Bromocarb_Liang2010.nc
HEMCO: Opening /fsx/HEMCO/ACET/v2014-07/ACET_seawater.generic.1x1.nc
HEMCO: Opening /fsx/HEMCO/SOILNOX/v2014-07/DepReservoirDefault.nc
HEMCO: Opening /fsx/HEMCO/SOILNOX/v2014-07/soilNOx.landtype.generic.025x025.1L.nc
HEMCO: Opening /fsx/HEMCO/SOILNOX/v2014-07/soilNOx.climate.generic.05x05.nc
HEMCO: Opening /fsx/HEMCO/DUST_DEAD/v2014-07/dst_tibds.geos.4x5.nc
HEMCO: Opening /fsx/HEMCO/DUST_DEAD/v2014-07/GOCART_src_fn.geos.4x5.nc
HEMCO: Opening /fsx/HEMCO/MEGAN/v2018-05/MEGAN2.1_EF.geos.025x03125.nc
HEMCO: Opening /fsx/HEMCO/MEGAN/v2017-07/CLM4_PFT.geos.025x03125.nc
HEMCO: Opening /fsx/HEMCO/TIMEZONES/v2015-02/timezones_voronoi_1x1.nc
HEMCO: Opening /fsx/HEMCO/STRAT/v2015-01/Bry/GEOSCCM_Bry.200701.day.nc
HEMCO: Opening /fsx/HEMCO/STRAT/v2015-01/Bry/GEOSCCM_Bry.200701.night.nc
HEMCO: Opening /fsx/HEMCO/OMOC/v2018-01/OMOC.DJF.01x01.nc
HEMCO: Opening /fsx/HEMCO/OMOC/v2018-01/OMOC.MAM.01x01.nc
HEMCO: Opening /fsx/HEMCO/OMOC/v2018-01/OMOC.JJA.01x01.nc
HEMCO: Opening /fsx/HEMCO/OMOC/v2018-01/OMOC.SON.01x01.nc
HEMCO: Opening /fsx/HEMCO/AnnualScalar/v2014-07/AnnualScalar.geos.1x1.nc
HEMCO: Opening /fsx/HEMCO/EDGARv42/v2015-02/NO/EDGAR_hourly_NOxScal.nc
HEMCO: Opening /fsx/HEMCO/MASKS/v2018-09/EMEP_mask.geos.1x1.20151222.nc
HEMCO: Opening /fsx/HEMCO/MASKS/v2018-09/Canada_mask.geos.1x1.nc
HEMCO: Opening /fsx/HEMCO/MASKS/v2018-09/SE_Asia_mask.generic.1x1.nc
HEMCO: Opening /fsx/HEMCO/MASKS/v2018-09/MIX_Asia_mask.generic.025x025.nc
HEMCO: Opening /fsx/HEMCO/MASKS/v2018-09/CONUS_Mask.01x01.nc
HEMCO: Opening /fsx/HEMCO/MASKS/v2018-09/AF_LANDMASK.geos.05x0666.global.nc
HEMCO: Opening /fsx/HEMCO/MASKS/v2018-09/China_mask.generic.1x1.nc
HEMCO: Opening /fsx/HEMCO/MASKS/v2018-09/India_mask.generic.1x1.nc
HEMCO: Opening /fsx/HEMCO/AnnualScalar/v2014-07/AnnualScalar.geos.1x1.nc
HEMCO: Opening /fsx/HEMCO/NH3/v2014-07/NH3_geos.4x5.nc
HEMCO: Opening /fsx/HEMCO/NH3/v2018-04/NH3_Arctic_seabirds.nc
HEMCO: Opening /fsx/HEMCO/CEDS/v2018-08/2014/NO-em-anthro_CMIP_CEDS_2014.nc
HEMCO: Opening /fsx/HEMCO/CEDS/v2018-08/2014/CO-em-anthro_CMIP_CEDS_2014.nc
HEMCO: Opening /fsx/HEMCO/CEDS/v2018-08/2014/SO2-em-anthro_CMIP_CEDS_2014.nc
HEMCO: Opening /fsx/HEMCO/CEDS/v2018-08/2014/NH3-em-anthro_CMIP_CEDS_2014.nc
HEMCO: Opening /fsx/HEMCO/CEDS/v2018-08/2014/BC-em-anthro_CMIP_CEDS_2014.nc
HEMCO: Opening /fsx/HEMCO/CEDS/v2018-08/2014/OC-em-anthro_CMIP_CEDS_2014.nc
HEMCO: Opening /fsx/HEMCO/CEDS/v2018-08/2014/EOH-em-anthro_CMIP_CEDS_2014.nc
HEMCO: Opening /fsx/HEMCO/CEDS/v2018-08/2014/C2H6-em-anthro_CMIP_CEDS_2014.nc
HEMCO: Opening /fsx/HEMCO/CEDS/v2018-08/2014/C3H8-em-anthro_CMIP_CEDS_2014.nc
HEMCO: Opening /fsx/HEMCO/CEDS/v2018-08/2014/ALK4_butanes-em-anthro_CMIP_CEDS_2014.nc
HEMCO: Opening /fsx/HEMCO/CEDS/v2018-08/2014/ALK4_pentanes-em-anthro_CMIP_CEDS_2014.nc
HEMCO: Opening /fsx/HEMCO/CEDS/v2018-08/2014/ALK4_hexanes-em-anthro_CMIP_CEDS_2014.nc
HEMCO: Opening /fsx/HEMCO/CEDS/v2018-08/2014/PRPE-em-anthro_CMIP_CEDS_2014.nc
HEMCO: Opening /fsx/HEMCO/CEDS/v2018-08/2014/BENZ-em-anthro_CMIP_CEDS_2014.nc
HEMCO: Opening /fsx/HEMCO/CEDS/v2018-08/2014/TOLU-em-anthro_CMIP_CEDS_2014.nc
HEMCO: Opening /fsx/HEMCO/CEDS/v2018-08/2014/XYLE-em-anthro_CMIP_CEDS_2014.nc
HEMCO: Opening /fsx/HEMCO/CEDS/v2018-08/2014/CH2O-em-anthro_CMIP_CEDS_2014.nc
HEMCO: Opening /fsx/HEMCO/CEDS/v2018-08/2014/ALD2-em-anthro_CMIP_CEDS_2014.nc
HEMCO: Opening /fsx/HEMCO/CEDS/v2018-08/2014/MEK-em-anthro_CMIP_CEDS_2014.nc
HEMCO: Opening /fsx/HEMCO/CEDS/v2018-08/2014/HCOOH-em-anthro_CMIP_CEDS_2014.nc
HEMCO: Opening /fsx/HEMCO/C2H6_2010/v2017-05/C2H6_global_anth_biof.201001.nc
HEMCO: Opening /fsx/HEMCO/NEI2011/v2017-02-MM/01/NEI11_0.1x0.1_201101_monmean.nc
HEMCO: Opening /fsx/HEMCO/NEI2011/v2017-02-MM/01/NEI11_0.1x0.1_201101_monmean_egu.nc
HEMCO: Opening /fsx/HEMCO/NEI2011/v2017-02-MM/01/NEI11_0.1x0.1_201101_monmean_egupk.nc
HEMCO: Opening /fsx/HEMCO/NEI2011/v2017-02-MM/01/NEI11_0.1x0.1_201101_monmean_oilgas.nc
HEMCO: Opening /fsx/HEMCO/NEI2011/v2017-02-MM/01/NEI11_0.1x0.1_201101_monmean_othpt.nc
HEMCO: Opening /fsx/HEMCO/NEI2011/v2017-02-MM/01/NEI11_0.1x0.1_201101_monmean_ptnonipm.nc
HEMCO: Opening /fsx/HEMCO/IODINE/v2017-09/CH3I_monthly_emissions_Ordonez_2012_COARDS.nc
HEMCO: Opening /fsx/HEMCO/IODINE/v2017-09/CH2I2_monthly_emissions_Ordonez_2012_COARDS.nc
HEMCO: Opening /fsx/HEMCO/IODINE/v2017-09/CH2ICl_monthly_emissions_Ordonez_2012_COARDS.nc
HEMCO: Opening /fsx/HEMCO/IODINE/v2017-09/CH2IBr_monthly_emissions_Ordonez_2012_COARDS.nc
HEMCO: Opening /fsx/HEMCO/CEDS/v2018-08/2014/CO-em-anthro_CMIP_CEDS_2014.nc
HEMCO: Opening /fsx/HEMCO/CEDS/v2018-08/2014/SO2-em-anthro_CMIP_CEDS_2014.nc
HEMCO: Opening /fsx/HEMCO/CEDS/v2018-08/2014/NH3-em-anthro_CMIP_CEDS_2014.nc
HEMCO: Opening /fsx/HEMCO/CEDS/v2018-08/2014/BC-em-anthro_CMIP_CEDS_2014.nc
HEMCO: Opening /fsx/HEMCO/CEDS/v2018-08/2014/OC-em-anthro_CMIP_CEDS_2014.nc
HEMCO: Opening /fsx/HEMCO/CEDS/v2018-08/2014/EOH-em-anthro_CMIP_CEDS_2014.nc
HEMCO: Opening /fsx/HEMCO/CEDS/v2018-08/2014/C2H6-em-anthro_CMIP_CEDS_2014.nc
HEMCO: Opening /fsx/HEMCO/CEDS/v2018-08/2014/C3H8-em-anthro_CMIP_CEDS_2014.nc
HEMCO: Opening /fsx/HEMCO/CEDS/v2018-08/2014/ALK4_butanes-em-anthro_CMIP_CEDS_2014.nc
HEMCO: Opening /fsx/HEMCO/CEDS/v2018-08/2014/ALK4_pentanes-em-anthro_CMIP_CEDS_2014.nc
HEMCO: Opening /fsx/HEMCO/CEDS/v2018-08/2014/ALK4_hexanes-em-anthro_CMIP_CEDS_2014.nc
HEMCO: Opening /fsx/HEMCO/CEDS/v2018-08/2014/PRPE-em-anthro_CMIP_CEDS_2014.nc
HEMCO: Opening /fsx/HEMCO/CEDS/v2018-08/2014/BENZ-em-anthro_CMIP_CEDS_2014.nc
HEMCO: Opening /fsx/HEMCO/CEDS/v2018-08/2014/TOLU-em-anthro_CMIP_CEDS_2014.nc
HEMCO: Opening /fsx/HEMCO/CEDS/v2018-08/2014/XYLE-em-anthro_CMIP_CEDS_2014.nc
HEMCO: Opening /fsx/HEMCO/CEDS/v2018-08/2014/CH2O-em-anthro_CMIP_CEDS_2014.nc
HEMCO: Opening /fsx/HEMCO/CEDS/v2018-08/2014/ALD2-em-anthro_CMIP_CEDS_2014.nc
HEMCO: Opening /fsx/HEMCO/CEDS/v2018-08/2014/MEK-em-anthro_CMIP_CEDS_2014.nc
HEMCO: Opening /fsx/HEMCO/CEDS/v2018-08/2014/HCOOH-em-anthro_CMIP_CEDS_2014.nc
HEMCO: Opening /fsx/HEMCO/CEDS/v2018-08/2014/NO-em-anthro_CMIP_CEDS_2014.nc
HEMCO: Opening /fsx/HEMCO/AEIC/v2015-01/AEIC.47L.gen.1x1.nc
HEMCO: Opening /fsx/HEMCO/ALD2/v2017-03/resp.geos.2x25.nc
HEMCO: Opening /fsx/HEMCO/DMS/v2015-07/DMS_lana.geos.1x1.nc
HEMCO: Opening /fsx/HEMCO/ALD2/v2017-03/ALD2_seawater.geos.2x25.nc
HEMCO: Opening /fsx/HEMCO/DUST_DEAD/v2014-07/dst_tvbds.geos.4x5.nc
HEMCO: Opening /fsx/HEMCO/DUST_DEAD/v2018-04/PM25FINE_ECLIPSE_2015.geos.2x25.nc
HEMCO: Opening /fsx/HEMCO/SOA/v2014-07/NVOC.geos.1x1.nc
HEMCO: Opening /fsx/HEMCO/GFED4/v2015-10/2016/GFED4_gen.025x025.201601.nc
HEMCO: Opening /fsx/HEMCO/UVALBEDO/v2015-03/uvalbedo.geos.2x25.nc
HEMCO: Opening /fsx/HEMCO/GMI/v2015-02/gmi.clim.ACET.geos5.2x25.nc
HEMCO: Opening /fsx/HEMCO/GMI/v2015-02/gmi.clim.ACTA.geos5.2x25.nc
HEMCO: Opening /fsx/HEMCO/GMI/v2015-02/gmi.clim.ALD2.geos5.2x25.nc
HEMCO: Opening /fsx/HEMCO/GMI/v2015-02/gmi.clim.ALK4.geos5.2x25.nc
HEMCO: Opening /fsx/HEMCO/GMI/v2015-02/gmi.clim.C2H6.geos5.2x25.nc
HEMCO: Opening /fsx/HEMCO/GMI/v2015-02/gmi.clim.C3H8.geos5.2x25.nc
HEMCO: Opening /fsx/HEMCO/GMI/v2015-02/gmi.clim.CCl4.geos5.2x25.nc
HEMCO: Opening /fsx/HEMCO/GMI/v2015-02/gmi.clim.CF2Cl2.geos5.2x25.nc
HEMCO: Opening /fsx/HEMCO/GMI/v2015-02/gmi.clim.CF2ClBr.geos5.2x25.nc
HEMCO: Opening /fsx/HEMCO/GMI/v2015-02/gmi.clim.CFC113.geos5.2x25.nc
HEMCO: Opening /fsx/HEMCO/GMI/v2015-02/gmi.clim.CFC114.geos5.2x25.nc
HEMCO: Opening /fsx/HEMCO/GMI/v2015-02/gmi.clim.CFC115.geos5.2x25.nc
HEMCO: Opening /fsx/HEMCO/GMI/v2015-02/gmi.clim.CFCl3.geos5.2x25.nc
HEMCO: Opening /fsx/HEMCO/GMI/v2015-02/gmi.clim.CH2O.geos5.2x25.nc
HEMCO: Opening /fsx/HEMCO/GMI/v2015-02/gmi.clim.CH3CCl3.geos5.2x25.nc
HEMCO: Opening /fsx/HEMCO/GMI/v2015-02/gmi.clim.CH3Cl.geos5.2x25.nc
HEMCO: Opening /fsx/HEMCO/GMI/v2015-02/gmi.clim.CH4.geos5.2x25.nc
HEMCO: Opening /fsx/HEMCO/GMI/v2015-02/gmi.clim.CO.geos5.2x25.nc
HEMCO: Opening /fsx/HEMCO/GMI/v2015-02/gmi.clim.Cl.geos5.2x25.nc
HEMCO: Opening /fsx/HEMCO/GMI/v2015-02/gmi.clim.Cl2.geos5.2x25.nc
HEMCO: Opening /fsx/HEMCO/GMI/v2015-02/gmi.clim.Cl2O2.geos5.2x25.nc
HEMCO: Opening /fsx/HEMCO/GMI/v2015-02/gmi.clim.ClO.geos5.2x25.nc
HEMCO: Opening /fsx/HEMCO/GMI/v2015-02/gmi.clim.EOH.geos5.2x25.nc
HEMCO: Opening /fsx/HEMCO/GMI/v2015-02/gmi.clim.GLYC.geos5.2x25.nc
HEMCO: Opening /fsx/HEMCO/GMI/v2015-02/gmi.clim.GLYX.geos5.2x25.nc
HEMCO: Opening /fsx/HEMCO/GMI/v2015-02/gmi.clim.H2402.geos5.2x25.nc
HEMCO: Opening /fsx/HEMCO/GMI/v2015-02/gmi.clim.H2O.geos5.2x25.nc
HEMCO: Opening /fsx/HEMCO/GMI/v2015-02/gmi.clim.H2O2.geos5.2x25.nc
HEMCO: Opening /fsx/HEMCO/GMI/v2015-02/gmi.clim.HAC.geos5.2x25.nc
HEMCO: Opening /fsx/HEMCO/GMI/v2015-02/gmi.clim.HCFC141b.geos5.2x25.nc
HEMCO: Opening /fsx/HEMCO/GMI/v2015-02/gmi.clim.HCFC142b.geos5.2x25.nc
HEMCO: Opening /fsx/HEMCO/GMI/v2015-02/gmi.clim.HCFC22.geos5.2x25.nc
HEMCO: Opening /fsx/HEMCO/GMI/v2015-02/gmi.clim.HCOOH.geos5.2x25.20170108.nc
HEMCO: Opening /fsx/HEMCO/GMI/v2015-02/gmi.clim.HCl.geos5.2x25.nc
HEMCO: Opening /fsx/HEMCO/GMI/v2015-02/gmi.clim.HNO2.geos5.2x25.nc
HEMCO: Opening /fsx/HEMCO/GMI/v2015-02/gmi.clim.HNO3.geos5.2x25.nc
HEMCO: Opening /fsx/HEMCO/GMI/v2015-02/gmi.clim.HNO4.geos5.2x25.nc
HEMCO: Opening /fsx/HEMCO/GMI/v2015-02/gmi.clim.HOCl.geos5.2x25.nc
HEMCO: Opening /fsx/HEMCO/GMI/v2015-02/gmi.clim.ISN1.geos5.2x25.nc
HEMCO: Opening /fsx/HEMCO/GMI/v2015-02/gmi.clim.ISOP.geos5.2x25.nc
HEMCO: Opening /fsx/HEMCO/GMI/v2015-02/gmi.clim.MACR.geos5.2x25.nc
HEMCO: Opening /fsx/HEMCO/GMI/v2015-02/gmi.clim.MAP.geos5.2x25.nc
HEMCO: Opening /fsx/HEMCO/GMI/v2015-02/gmi.clim.MEK.geos5.2x25.nc
HEMCO: Opening /fsx/HEMCO/GMI/v2015-02/gmi.clim.MGLY.geos5.2x25.nc
HEMCO: Opening /fsx/HEMCO/GMI/v2015-02/gmi.clim.MP.geos5.2x25.nc
HEMCO: Opening /fsx/HEMCO/GMI/v2015-02/gmi.clim.MVK.geos5.2x25.nc
HEMCO: Opening /fsx/HEMCO/GMI/v2015-02/gmi.clim.N2O.geos5.2x25.nc
HEMCO: Opening /fsx/HEMCO/GMI/v2015-02/gmi.clim.N2O5.geos5.2x25.nc
HEMCO: Opening /fsx/HEMCO/GMI/v2015-02/gmi.clim.NO.geos5.2x25.nc
HEMCO: Opening /fsx/HEMCO/GMI/v2015-02/gmi.clim.NO2.geos5.2x25.nc
HEMCO: Opening /fsx/HEMCO/GMI/v2015-02/gmi.clim.NO3.geos5.2x25.nc
HEMCO: Opening /fsx/HEMCO/GMI/v2015-02/gmi.clim.O3.geos5.2x25.nc
HEMCO: Opening /fsx/HEMCO/GMI/v2015-02/gmi.clim.OClO.geos5.2x25.nc
HEMCO: Opening /fsx/HEMCO/GMI/v2015-02/gmi.clim.PAN.geos5.2x25.nc
HEMCO: Opening /fsx/HEMCO/GMI/v2015-02/gmi.clim.NPMN.geos5.2x25.nc
HEMCO: Opening /fsx/HEMCO/GMI/v2015-02/gmi.clim.IPMN.geos5.2x25.nc
HEMCO: Opening /fsx/HEMCO/GMI/v2015-02/gmi.clim.PPN.geos5.2x25.nc
HEMCO: Opening /fsx/HEMCO/GMI/v2015-02/gmi.clim.PRPE.geos5.2x25.nc
HEMCO: Opening /fsx/HEMCO/GMI/v2015-02/gmi.clim.R4N2.geos5.2x25.nc
HEMCO: Opening /fsx/HEMCO/GMI/v2015-02/gmi.clim.RCHO.geos5.2x25.nc
HEMCO: Opening /fsx/HEMCO/GMI/v2015-02/gmi.clim.RIPA.geos5.2x25.nc
HEMCO: Opening /fsx/HEMCO/GMI/v2015-02/gmi.clim.RIPB.geos5.2x25.nc
HEMCO: Opening /fsx/HEMCO/GMI/v2015-02/gmi.clim.RIPD.geos5.2x25.nc
HEMCO: Opening /fsx/HEMCO/GMI/v2015-02/gmi.clim.OH.geos5.2x25.nc
HEMCO: Opening /fsx/HEMCO/NOAA_GMD/v2018-01/monthly.gridded.surface.methane.1979-2020.1x1.nc
HEMCO: Opening /fsx/HEMCO/GEIA/v2014-07/GEIA_monthscal.generic.1x1.nc
HEMCO: Opening /fsx/HEMCO/EMEP/v2015-03/EMEP.Seasonal.geos.1x1.nc
HEMCO: Opening /fsx/HEMCO/BROMINE/v2015-02/BromoCarb_Season.nc
HEMCO: Opening /fsx/HEMCO/EDGARv43/v2016-11/EDGAR_v43.Seasonal.1x1.nc
HEMCO: Opening /fsx/HEMCO/NEI2005/v2014-09/scaling/NEI99.dow.geos.1x1.nc
HEMCO: Opening /fsx/HEMCO/VOLCANO/v2015-02/2009/volc_so2_gen.1x1.47L.200901.nc
HEMCO: Opening /fsx/HEMCO/SOILNOX/v2014-07/soilNOx.fert_res.generic.05x05.nc
 vdinti: pbl height will be limited to bottom           25  model levels. top is
     431.250100000000       hpa
 =================================================
 W R F - G C   T I M E R S
    Domain           1 (Units: s)
 =================================================
  => Coupler Component                       0.048
   -- Physics & Parameterization             0.010
   -- Diagnostics Out                        0.000
  => GEOS-Chem Column                       80.964
  ===> Total Chemistry                      81.012
  => WRF                                    17.296
  ===> Total WRF-GC                         98.308
 max optd  4.5185168E+30
 max taucldi  7.0406906E-02
 max taucldw  3.2552238E-05
 Switching is not necessary as we are already
 in the right domain!
 GIGC_Chunk_Run: Running for in-PET grid #           1
 GIGC_Chunk_Run: Received new grid IM, JM, LM =          14           9
          49
 =================================================
 W R F - G C   T I M E R S
    Domain           1 (Units: s)
 =================================================
  => Coupler Component                       0.082
   -- Physics & Parameterization             0.019
   -- Diagnostics Out                        0.000
  => GEOS-Chem Column                       82.192
  ===> Total Chemistry                      82.274
  => WRF                                   109.917
  ===> Total WRF-GC                        192.191
 max optd  4.5185168E+30
 max taucldi  6.9643073E-02
 max taucldw  5.7904454E-05
 Switching is not necessary as we are already
 in the right domain!
 GIGC_Chunk_Run: Running for in-PET grid #           1
 GIGC_Chunk_Run: Received new grid IM, JM, LM =          14           9
          49
 =================================================
 W R F - G C   T I M E R S
    Domain           1 (Units: s)
 =================================================
  => Coupler Component                       0.114
   -- Physics & Parameterization             0.029
   -- Diagnostics Out                        0.000
  => GEOS-Chem Column                       83.207
  ===> Total Chemistry                      83.321
  => WRF                                   130.541
  ===> Total WRF-GC                        213.862
 max optd  4.5185168E+30
 max taucldi  7.0722535E-02
 max taucldw  7.9183257E-05
 Switching is not necessary as we are already
 in the right domain!
 GIGC_Chunk_Run: Running for in-PET grid #           1
 GIGC_Chunk_Run: Received new grid IM, JM, LM =          14           9
          49
 =================================================
 W R F - G C   T I M E R S
    Domain           1 (Units: s)
 =================================================
  => Coupler Component                       0.148
   -- Physics & Parameterization             0.039
   -- Diagnostics Out                        0.000
  => GEOS-Chem Column                       84.188
  ===> Total Chemistry                      84.336
  => WRF                                   149.603
  ===> Total WRF-GC                        233.939
 max optd  4.5185168E+30
 max taucldi  7.3973253E-02
 max taucldw  9.6954565E-05
 Switching is not necessary as we are already
 in the right domain!
 GIGC_Chunk_Run: Running for in-PET grid #           1
 GIGC_Chunk_Run: Received new grid IM, JM, LM =          14           9
          49
 =================================================
 W R F - G C   T I M E R S
    Domain           1 (Units: s)
 =================================================
  => Coupler Component                       0.179
   -- Physics & Parameterization             0.048
   -- Diagnostics Out                        0.000
  => GEOS-Chem Column                       85.168
  ===> Total Chemistry                      85.347
  => WRF                                   168.268
  ===> Total WRF-GC                        253.615
 max optd  4.5185168E+30
 max taucldi  9.3279243E-02
 max taucldw  1.1166921E-04
 Switching is not necessary as we are already
 in the right domain!
 GIGC_Chunk_Run: Running for in-PET grid #           1
 GIGC_Chunk_Run: Received new grid IM, JM, LM =          14           9
          49
 =================================================
 W R F - G C   T I M E R S
    Domain           1 (Units: s)
 =================================================
  => Coupler Component                       0.208
   -- Physics & Parameterization             0.058
   -- Diagnostics Out                        0.000
  => GEOS-Chem Column                       86.116
  ===> Total Chemistry                      86.324
  => WRF                                   186.786
  ===> Total WRF-GC                        273.111
 max optd  4.5185168E+30
 max taucldi  0.1182588    
 max taucldw  1.2294504E-04
 Switching is not necessary as we are already
 in the right domain!
 GIGC_Chunk_Run: Running for in-PET grid #           1
 GIGC_Chunk_Run: Received new grid IM, JM, LM =          14           9
          49
 =================================================
 W R F - G C   T I M E R S
    Domain           1 (Units: s)
 =================================================
  => Coupler Component                       0.237
   -- Physics & Parameterization             0.067
   -- Diagnostics Out                        0.000
  => GEOS-Chem Column                       87.077
  ===> Total Chemistry                      87.314
  => WRF                                   205.362
  ===> Total WRF-GC                        292.677
 max optd  4.5185168E+30
 max taucldi  0.1425812    
 max taucldw  1.2987691E-04
 Switching is not necessary as we are already
 in the right domain!
 GIGC_Chunk_Run: Running for in-PET grid #           1
 GIGC_Chunk_Run: Received new grid IM, JM, LM =          14           9
          49
 =================================================
 W R F - G C   T I M E R S
    Domain           1 (Units: s)
 =================================================
  => Coupler Component                       0.266
   -- Physics & Parameterization             0.076
   -- Diagnostics Out                        0.000
  => GEOS-Chem Column                       88.035
  ===> Total Chemistry                      88.302
  => WRF                                   223.834
  ===> Total WRF-GC                        312.136
 max optd  4.5185168E+30
 max taucldi  0.1710736    
 max taucldw  1.3192973E-04
 Switching is not necessary as we are already
 in the right domain!
 GIGC_Chunk_Run: Running for in-PET grid #           1
 GIGC_Chunk_Run: Received new grid IM, JM, LM =          14           9
          49
 =================================================
 W R F - G C   T I M E R S
    Domain           1 (Units: s)
 =================================================
  => Coupler Component                       0.301
   -- Physics & Parameterization             0.086
   -- Diagnostics Out                        0.000
  => GEOS-Chem Column                       88.967
  ===> Total Chemistry                      89.268
  => WRF                                   242.297
  ===> Total WRF-GC                        331.565
 max optd  4.5185168E+30
 max taucldi  0.1937011    
 max taucldw  1.2913291E-04
 Switching is not necessary as we are already
 in the right domain!
 GIGC_Chunk_Run: Running for in-PET grid #           1
 GIGC_Chunk_Run: Received new grid IM, JM, LM =          14           9
          49
 =================================================
 W R F - G C   T I M E R S
    Domain           1 (Units: s)
 =================================================
  => Coupler Component                       0.330
   -- Physics & Parameterization             0.096
   -- Diagnostics Out                        0.000
  => GEOS-Chem Column                       89.915
  ===> Total Chemistry                      90.245
  => WRF                                   260.866
  ===> Total WRF-GC                        351.112
 max optd  4.5185168E+30
 max taucldi  0.2037780    
 max taucldw  1.2282294E-04
 Switching is not necessary as we are already
 in the right domain!
 GIGC_Chunk_Run: Running for in-PET grid #           1
 GIGC_Chunk_Run: Received new grid IM, JM, LM =          14           9
          49
 =================================================
 W R F - G C   T I M E R S
    Domain           1 (Units: s)
 =================================================
  => Coupler Component                       0.362
   -- Physics & Parameterization             0.106
   -- Diagnostics Out                        0.000
  => GEOS-Chem Column                       90.871
  ===> Total Chemistry                      91.233
  => WRF                                   279.332
  ===> Total WRF-GC                        370.565
 max optd  4.5185168E+30
 max taucldi  0.2127288    
 max taucldw  1.1489621E-04
 Switching is not necessary as we are already
 in the right domain!
 GIGC_Chunk_Run: Running for in-PET grid #           1
 GIGC_Chunk_Run: Received new grid IM, JM, LM =          14           9
          49
 =================================================
 W R F - G C   T I M E R S
    Domain           1 (Units: s)
 =================================================
  => Coupler Component                       0.391
   -- Physics & Parameterization             0.116
   -- Diagnostics Out                        0.000
  => GEOS-Chem Column                       91.823
  ===> Total Chemistry                      92.214
  => WRF                                   297.679
  ===> Total WRF-GC                        389.893
 HOURLY EMISSIONS UPDATE TIME     3600.0       0.0
mediation_integrate: med_read_wrf_chem_emissions: Read emissions for time 2018-01-01_01:00:00
 max optd  4.5185168E+30
 max taucldi  0.2212686    
 max taucldw  1.0706211E-04
 Switching is not necessary as we are already
 in the right domain!
 GIGC_Chunk_Run: Running for in-PET grid #           1
 GIGC_Chunk_Run: Received new grid IM, JM, LM =          14           9
          49
 =================================================
 W R F - G C   T I M E R S
    Domain           1 (Units: s)
 =================================================
  => Coupler Component                       0.430
   -- Physics & Parameterization             0.126
   -- Diagnostics Out                        0.000
  => GEOS-Chem Column                       92.759
  ===> Total Chemistry                      93.190
  => WRF                                   316.083
  ===> Total WRF-GC                        409.273
 max optd  4.5185168E+30
 max taucldi  0.2264313    
 max taucldw  1.0122728E-04
 Switching is not necessary as we are already
 in the right domain!
 GIGC_Chunk_Run: Running for in-PET grid #           1
 GIGC_Chunk_Run: Received new grid IM, JM, LM =          14           9
          49
 =================================================
 W R F - G C   T I M E R S
    Domain           1 (Units: s)
 =================================================
  => Coupler Component                       0.462
   -- Physics & Parameterization             0.135
   -- Diagnostics Out                        0.000
  => GEOS-Chem Column                       93.710
  ===> Total Chemistry                      94.172
  => WRF                                   334.524
  ===> Total WRF-GC                        428.696
 max optd  4.5185168E+30
 max taucldi  0.2309204    
 max taucldw  9.7121811E-05
 Switching is not necessary as we are already
 in the right domain!
 GIGC_Chunk_Run: Running for in-PET grid #           1
 GIGC_Chunk_Run: Received new grid IM, JM, LM =          14           9
          49
 =================================================
 W R F - G C   T I M E R S
    Domain           1 (Units: s)
 =================================================
  => Coupler Component                       0.497
   -- Physics & Parameterization             0.145
   -- Diagnostics Out                        0.000
  => GEOS-Chem Column                       94.670
  ===> Total Chemistry                      95.167
  => WRF                                   352.826
  ===> Total WRF-GC                        447.993
 max optd  4.5185168E+30
 max taucldi  0.2401384    
 max taucldw  9.4218856E-05
 Switching is not necessary as we are already
 in the right domain!
 GIGC_Chunk_Run: Running for in-PET grid #           1
 GIGC_Chunk_Run: Received new grid IM, JM, LM =          14           9
          49
 =================================================
 W R F - G C   T I M E R S
    Domain           1 (Units: s)
 =================================================
  => Coupler Component                       0.535
   -- Physics & Parameterization             0.154
   -- Diagnostics Out                        0.000
  => GEOS-Chem Column                       95.599
  ===> Total Chemistry                      96.134
  => WRF                                   371.171
  ===> Total WRF-GC                        467.305
 max optd  4.5185168E+30
 max taucldi  0.2497389    
 max taucldw  9.2272683E-05
 Switching is not necessary as we are already
 in the right domain!
 GIGC_Chunk_Run: Running for in-PET grid #           1
 GIGC_Chunk_Run: Received new grid IM, JM, LM =          14           9
          49
 =================================================
 W R F - G C   T I M E R S
    Domain           1 (Units: s)
 =================================================
  => Coupler Component                       0.570
   -- Physics & Parameterization             0.163
   -- Diagnostics Out                        0.000
  => GEOS-Chem Column                       96.545
  ===> Total Chemistry                      97.115
  => WRF                                   389.524
  ===> Total WRF-GC                        486.639
 max optd  4.5185168E+30
 max taucldi  0.2667977    
 max taucldw  9.0670219E-05
 Switching is not necessary as we are already
 in the right domain!
 GIGC_Chunk_Run: Running for in-PET grid #           1
 GIGC_Chunk_Run: Received new grid IM, JM, LM =          14           9
          49
 =================================================
 W R F - G C   T I M E R S
    Domain           1 (Units: s)
 =================================================
  => Coupler Component                       0.600
   -- Physics & Parameterization             0.173
   -- Diagnostics Out                        0.000
  => GEOS-Chem Column                       97.491
  ===> Total Chemistry                      98.091
  => WRF                                   407.841
  ===> Total WRF-GC                        505.932
 max optd  4.5185168E+30
 max taucldi  0.2786882    
 max taucldw  8.9249312E-05
 Switching is not necessary as we are already
 in the right domain!
 GIGC_Chunk_Run: Running for in-PET grid #           1
 GIGC_Chunk_Run: Received new grid IM, JM, LM =          14           9
          49
 =================================================
 W R F - G C   T I M E R S
    Domain           1 (Units: s)
 =================================================
  => Coupler Component                       0.632
   -- Physics & Parameterization             0.182
   -- Diagnostics Out                        0.000
  => GEOS-Chem Column                       98.449
  ===> Total Chemistry                      99.081
  => WRF                                   426.238
  ===> Total WRF-GC                        525.319
 max optd  4.5185168E+30
 max taucldi  0.2739044    
 max taucldw  8.8737310E-05
 Switching is not necessary as we are already
 in the right domain!
 GIGC_Chunk_Run: Running for in-PET grid #           1
 GIGC_Chunk_Run: Received new grid IM, JM, LM =          14           9
          49
 =================================================
 W R F - G C   T I M E R S
    Domain           1 (Units: s)
 =================================================
  => Coupler Component                       0.662
   -- Physics & Parameterization             0.191
   -- Diagnostics Out                        0.000
  => GEOS-Chem Column                       99.392
  ===> Total Chemistry                     100.054
  => WRF                                   444.673
  ===> Total WRF-GC                        544.727
 max optd  4.5185168E+30
 max taucldi  0.2724762    
 max taucldw  8.9023815E-05
 Switching is not necessary as we are already
 in the right domain!
 GIGC_Chunk_Run: Running for in-PET grid #           1
 GIGC_Chunk_Run: Received new grid IM, JM, LM =          14           9
          49
 =================================================
 W R F - G C   T I M E R S
    Domain           1 (Units: s)
 =================================================
  => Coupler Component                       0.692
   -- Physics & Parameterization             0.201
   -- Diagnostics Out                        0.000
  => GEOS-Chem Column                      100.345
  ===> Total Chemistry                     101.037
  => WRF                                   462.896
  ===> Total WRF-GC                        563.933
 max optd  4.5185168E+30
 max taucldi  0.2840075    
 max taucldw  8.9183173E-05
 Switching is not necessary as we are already
 in the right domain!
 GIGC_Chunk_Run: Running for in-PET grid #           1
 GIGC_Chunk_Run: Received new grid IM, JM, LM =          14           9
          49
 =================================================
 W R F - G C   T I M E R S
    Domain           1 (Units: s)
 =================================================
  => Coupler Component                       0.722
   -- Physics & Parameterization             0.210
   -- Diagnostics Out                        0.000
  => GEOS-Chem Column                      101.297
  ===> Total Chemistry                     102.020
  => WRF                                   481.174
  ===> Total WRF-GC                        583.194
 max optd  4.5185168E+30
 max taucldi  0.3108969    
 max taucldw  8.8792418E-05
 Switching is not necessary as we are already
 in the right domain!
 GIGC_Chunk_Run: Running for in-PET grid #           1
 GIGC_Chunk_Run: Received new grid IM, JM, LM =          14           9
          49
 =================================================
 W R F - G C   T I M E R S
    Domain           1 (Units: s)
 =================================================
  => Coupler Component                       0.760
   -- Physics & Parameterization             0.220
   -- Diagnostics Out                        0.000
  => GEOS-Chem Column                      102.237
  ===> Total Chemistry                     102.997
  => WRF                                   499.546
  ===> Total WRF-GC                        602.543
 max optd  4.5185168E+30
 max taucldi  0.3215194    
 max taucldw  8.7997076E-05
 Switching is not necessary as we are already
 in the right domain!
 GIGC_Chunk_Run: Running for in-PET grid #           1
 GIGC_Chunk_Run: Received new grid IM, JM, LM =          14           9
          49
 =================================================
 W R F - G C   T I M E R S
    Domain           1 (Units: s)
 =================================================
  => Coupler Component                       0.793
   -- Physics & Parameterization             0.229
   -- Diagnostics Out                        0.000
  => GEOS-Chem Column                      103.178
  ===> Total Chemistry                     103.971
  => WRF                                   517.845
  ===> Total WRF-GC                        621.816
 HOURLY EMISSIONS UPDATE TIME     7200.0       0.0
mediation_integrate: med_read_wrf_chem_emissions: Read emissions for time 2018-01-01_02:00:00
 max optd  4.5185168E+30
 max taucldi  0.3251165    
 max taucldw  8.7356144E-05
 Switching is not necessary as we are already
 in the right domain!
 GIGC_Chunk_Run: Running for in-PET grid #           1
 GIGC_Chunk_Run: Received new grid IM, JM, LM =          14           9
          49
 =================================================
 W R F - G C   T I M E R S
    Domain           1 (Units: s)
 =================================================
  => Coupler Component                       0.825
   -- Physics & Parameterization             0.239
   -- Diagnostics Out                        0.000
  => GEOS-Chem Column                      104.120
  ===> Total Chemistry                     104.944
  => WRF                                   536.164
  ===> Total WRF-GC                        641.108
 max optd  4.5185168E+30
 max taucldi  0.3347101    
 max taucldw  8.4850100E-05
 Switching is not necessary as we are already
 in the right domain!
 GIGC_Chunk_Run: Running for in-PET grid #           1
 GIGC_Chunk_Run: Received new grid IM, JM, LM =          14           9
          49
 =================================================
 W R F - G C   T I M E R S
    Domain           1 (Units: s)
 =================================================
  => Coupler Component                       0.854
   -- Physics & Parameterization             0.249
   -- Diagnostics Out                        0.000
  => GEOS-Chem Column                      105.063
  ===> Total Chemistry                     105.917
  => WRF                                   554.505
  ===> Total WRF-GC                        660.421
 max optd  4.5185168E+30
 max taucldi  0.3521751    
 max taucldw  8.2681436E-05
 Switching is not necessary as we are already
 in the right domain!
 GIGC_Chunk_Run: Running for in-PET grid #           1
 GIGC_Chunk_Run: Received new grid IM, JM, LM =          14           9
          49
 =================================================
 W R F - G C   T I M E R S
    Domain           1 (Units: s)
 =================================================
  => Coupler Component                       0.895
   -- Physics & Parameterization             0.258
   -- Diagnostics Out                        0.000
  => GEOS-Chem Column                      106.022
  ===> Total Chemistry                     106.917
  => WRF                                   572.763
  ===> Total WRF-GC                        679.680
 max optd  4.5185168E+30
 max taucldi  0.3624676    
 max taucldw  8.1994993E-05
 Switching is not necessary as we are already
 in the right domain!
 GIGC_Chunk_Run: Running for in-PET grid #           1
 GIGC_Chunk_Run: Received new grid IM, JM, LM =          14           9
          49
 =================================================
 W R F - G C   T I M E R S
    Domain           1 (Units: s)
 =================================================
  => Coupler Component                       0.927
   -- Physics & Parameterization             0.267
   -- Diagnostics Out                        0.000
  => GEOS-Chem Column                      106.974
  ===> Total Chemistry                     107.901
  => WRF                                   590.945
  ===> Total WRF-GC                        698.846
 max optd  4.5185168E+30
 max taucldi  0.3752093    
 max taucldw  8.2367187E-05
 Switching is not necessary as we are already
 in the right domain!
 GIGC_Chunk_Run: Running for in-PET grid #           1
 GIGC_Chunk_Run: Received new grid IM, JM, LM =          14           9
          49
 =================================================
 W R F - G C   T I M E R S
    Domain           1 (Units: s)
 =================================================
  => Coupler Component                       0.956
   -- Physics & Parameterization             0.277
   -- Diagnostics Out                        0.000
  => GEOS-Chem Column                      107.931
  ===> Total Chemistry                     108.887
  => WRF                                   609.198
  ===> Total WRF-GC                        718.085
 max optd  4.5185168E+30
 max taucldi  0.3854968    
 max taucldw  8.2640625E-05
 Switching is not necessary as we are already
 in the right domain!
 GIGC_Chunk_Run: Running for in-PET grid #           1
 GIGC_Chunk_Run: Received new grid IM, JM, LM =          14           9
          49
 =================================================
 W R F - G C   T I M E R S
    Domain           1 (Units: s)
 =================================================
  => Coupler Component                       0.988
   -- Physics & Parameterization             0.287
   -- Diagnostics Out                        0.000
  => GEOS-Chem Column                      108.882
  ===> Total Chemistry                     109.870
  => WRF                                   627.425
  ===> Total WRF-GC                        737.294
 max optd  4.5185168E+30
 max taucldi  0.4026164    
 max taucldw  8.2855957E-05
 Switching is not necessary as we are already
 in the right domain!
 GIGC_Chunk_Run: Running for in-PET grid #           1
 GIGC_Chunk_Run: Received new grid IM, JM, LM =          14           9
          49
 =================================================
 W R F - G C   T I M E R S
    Domain           1 (Units: s)
 =================================================
  => Coupler Component                       1.018
   -- Physics & Parameterization             0.297
   -- Diagnostics Out                        0.000
  => GEOS-Chem Column                      109.825
  ===> Total Chemistry                     110.844
  => WRF                                   645.677
  ===> Total WRF-GC                        756.521
 max optd  4.5185168E+30
 max taucldi  0.4199064    
 max taucldw  8.2201586E-05
 Switching is not necessary as we are already
 in the right domain!
 GIGC_Chunk_Run: Running for in-PET grid #           1
 GIGC_Chunk_Run: Received new grid IM, JM, LM =          14           9
          49
 =================================================
 W R F - G C   T I M E R S
    Domain           1 (Units: s)
 =================================================
  => Coupler Component                       1.050
   -- Physics & Parameterization             0.306
   -- Diagnostics Out                        0.000
  => GEOS-Chem Column                      110.760
  ===> Total Chemistry                     111.810
  => WRF                                   663.877
  ===> Total WRF-GC                        775.686
 max optd  4.5185168E+30
 max taucldi  0.4373004    
 max taucldw  8.2199578E-05
 Switching is not necessary as we are already
 in the right domain!
 GIGC_Chunk_Run: Running for in-PET grid #           1
 GIGC_Chunk_Run: Received new grid IM, JM, LM =          14           9
          49
 =================================================
 W R F - G C   T I M E R S
    Domain           1 (Units: s)
 =================================================
  => Coupler Component                       1.081
   -- Physics & Parameterization             0.316
   -- Diagnostics Out                        0.000
  => GEOS-Chem Column                      111.717
  ===> Total Chemistry                     112.798
  => WRF                                   682.112
  ===> Total WRF-GC                        794.910
 max optd  4.5185168E+30
 max taucldi  0.4505291    
 max taucldw  8.2220038E-05
 Switching is not necessary as we are already
 in the right domain!
 GIGC_Chunk_Run: Running for in-PET grid #           1
 GIGC_Chunk_Run: Received new grid IM, JM, LM =          14           9
          49
 =================================================
 W R F - G C   T I M E R S
    Domain           1 (Units: s)
 =================================================
  => Coupler Component                       1.116
   -- Physics & Parameterization             0.326
   -- Diagnostics Out                        0.000
  => GEOS-Chem Column                      112.641
  ===> Total Chemistry                     113.757
  => WRF                                   700.346
  ===> Total WRF-GC                        814.103
 max optd  4.5185168E+30
 max taucldi  0.4619816    
 max taucldw  8.1375889E-05
 Switching is not necessary as we are already
 in the right domain!
 GIGC_Chunk_Run: Running for in-PET grid #           1
 GIGC_Chunk_Run: Received new grid IM, JM, LM =          14           9
          49
 =================================================
 W R F - G C   T I M E R S
    Domain           1 (Units: s)
 =================================================
  => Coupler Component                       1.145
   -- Physics & Parameterization             0.336
   -- Diagnostics Out                        0.000
  => GEOS-Chem Column                      113.583
  ===> Total Chemistry                     114.728
  => WRF                                   718.549
  ===> Total WRF-GC                        833.276
 max optd  4.5185168E+30
 max taucldi  0.4529824    
 max taucldw  8.1014579E-05
 Switching is not necessary as we are already
 in the right domain!
 GIGC_Chunk_Run: Running for in-PET grid #           1
 GIGC_Chunk_Run: Received new grid IM, JM, LM =          14           9
          49
 =================================================
 W R F - G C   T I M E R S
    Domain           1 (Units: s)
 =================================================
  => Coupler Component                       1.178
   -- Physics & Parameterization             0.345
   -- Diagnostics Out                        0.000
  => GEOS-Chem Column                      114.527
  ===> Total Chemistry                     115.705
  => WRF                                   736.729
  ===> Total WRF-GC                        852.433
 HOURLY EMISSIONS UPDATE TIME    10800.0       0.0
mediation_integrate: med_read_wrf_chem_emissions: Read emissions for time 2018-01-01_03:00:00
 max optd  4.5185168E+30
 max taucldi  0.4285186    
 max taucldw  8.1367943E-05
 Switching is not necessary as we are already
 in the right domain!
 GIGC_Chunk_Run: Running for in-PET grid #           1
 GIGC_Chunk_Run: Received new grid IM, JM, LM =          14           9
          49
 =================================================
 W R F - G C   T I M E R S
    Domain           1 (Units: s)
 =================================================
  => Coupler Component                       1.207
   -- Physics & Parameterization             0.355
   -- Diagnostics Out                        0.000
  => GEOS-Chem Column                      115.476
  ===> Total Chemistry                     116.683
  => WRF                                   754.994
  ===> Total WRF-GC                        871.677
 max optd  4.5185168E+30
 max taucldi  0.4452556    
 max taucldw  8.1067687E-05
 Switching is not necessary as we are already
 in the right domain!
 GIGC_Chunk_Run: Running for in-PET grid #           1
 GIGC_Chunk_Run: Received new grid IM, JM, LM =          14           9
          49
 =================================================
 W R F - G C   T I M E R S
    Domain           1 (Units: s)
 =================================================
  => Coupler Component                       1.247
   -- Physics & Parameterization             0.364
   -- Diagnostics Out                        0.000
  => GEOS-Chem Column                      116.406
  ===> Total Chemistry                     117.653
  => WRF                                   773.172
  ===> Total WRF-GC                        890.825
 max optd  4.5185168E+30
 max taucldi  0.4645239    
 max taucldw  8.1129321E-05
 Switching is not necessary as we are already
 in the right domain!
 GIGC_Chunk_Run: Running for in-PET grid #           1
 GIGC_Chunk_Run: Received new grid IM, JM, LM =          14           9
          49
 =================================================
 W R F - G C   T I M E R S
    Domain           1 (Units: s)
 =================================================
  => Coupler Component                       1.280
   -- Physics & Parameterization             0.374
   -- Diagnostics Out                        0.000
  => GEOS-Chem Column                      117.354
  ===> Total Chemistry                     118.633
  => WRF                                   791.411
  ===> Total WRF-GC                        910.044
 max optd  4.5185168E+30
 max taucldi  0.4914202    
 max taucldw  8.5052343E-05
 Switching is not necessary as we are already
 in the right domain!
 GIGC_Chunk_Run: Running for in-PET grid #           1
 GIGC_Chunk_Run: Received new grid IM, JM, LM =          14           9
          49
 =================================================
 W R F - G C   T I M E R S
    Domain           1 (Units: s)
 =================================================
  => Coupler Component                       1.312
   -- Physics & Parameterization             0.383
   -- Diagnostics Out                        0.000
  => GEOS-Chem Column                      118.296
  ===> Total Chemistry                     119.608
  => WRF                                   809.598
  ===> Total WRF-GC                        929.205
 max optd  4.5185168E+30
 max taucldi  0.5297180    
 max taucldw  9.6898046E-05
 Switching is not necessary as we are already
 in the right domain!
 GIGC_Chunk_Run: Running for in-PET grid #           1
 GIGC_Chunk_Run: Received new grid IM, JM, LM =          14           9
          49
 =================================================
 W R F - G C   T I M E R S
    Domain           1 (Units: s)
 =================================================
  => Coupler Component                       1.345
   -- Physics & Parameterization             0.393
   -- Diagnostics Out                        0.000
  => GEOS-Chem Column                      119.215
  ===> Total Chemistry                     120.560
  => WRF                                   827.784
  ===> Total WRF-GC                        948.344
 max optd  4.5185168E+30
 max taucldi  0.5499921    
 max taucldw  1.0917202E-04
 Switching is not necessary as we are already
 in the right domain!
 GIGC_Chunk_Run: Running for in-PET grid #           1
 GIGC_Chunk_Run: Received new grid IM, JM, LM =          14           9
          49
 =================================================
 W R F - G C   T I M E R S
    Domain           1 (Units: s)
 =================================================
  => Coupler Component                       1.379
   -- Physics & Parameterization             0.403
   -- Diagnostics Out                        0.000
  => GEOS-Chem Column                      120.163
  ===> Total Chemistry                     121.541
  => WRF                                   846.267
  ===> Total WRF-GC                        967.809
 max optd  4.5185168E+30
 max taucldi  0.5714160    
 max taucldw  1.2084284E-04
 Switching is not necessary as we are already
 in the right domain!
 GIGC_Chunk_Run: Running for in-PET grid #           1
 GIGC_Chunk_Run: Received new grid IM, JM, LM =          14           9
          49
 =================================================
 W R F - G C   T I M E R S
    Domain           1 (Units: s)
 =================================================
  => Coupler Component                       1.408
   -- Physics & Parameterization             0.412
   -- Diagnostics Out                        0.000
  => GEOS-Chem Column                      121.107
  ===> Total Chemistry                     122.515
  => WRF                                   864.553
  ===> Total WRF-GC                        987.069
 max optd  4.5185168E+30
 max taucldi  0.5843346    
 max taucldw  1.3194894E-04
 Switching is not necessary as we are already
 in the right domain!
 GIGC_Chunk_Run: Running for in-PET grid #           1
 GIGC_Chunk_Run: Received new grid IM, JM, LM =          14           9
          49
 =================================================
 W R F - G C   T I M E R S
    Domain           1 (Units: s)
 =================================================
  => Coupler Component                       1.448
   -- Physics & Parameterization             0.422
   -- Diagnostics Out                        0.000
  => GEOS-Chem Column                      122.038
  ===> Total Chemistry                     123.486
  => WRF                                   882.682
  ===> Total WRF-GC                       1006.168
 max optd  4.5185168E+30
 max taucldi  0.6003360    
 max taucldw  1.4311414E-04
 Switching is not necessary as we are already
 in the right domain!
 GIGC_Chunk_Run: Running for in-PET grid #           1
 GIGC_Chunk_Run: Received new grid IM, JM, LM =          14           9
          49
 =================================================
 W R F - G C   T I M E R S
    Domain           1 (Units: s)
 =================================================
  => Coupler Component                       1.480
   -- Physics & Parameterization             0.432
   -- Diagnostics Out                        0.000
  => GEOS-Chem Column                      122.988
  ===> Total Chemistry                     124.468
  => WRF                                   901.031
  ===> Total WRF-GC                       1025.499
 max optd  4.5185168E+30
 max taucldi  0.6078271    
 max taucldw  1.5399377E-04
 Switching is not necessary as we are already
 in the right domain!
 GIGC_Chunk_Run: Running for in-PET grid #           1
 GIGC_Chunk_Run: Received new grid IM, JM, LM =          14           9
          49
 =================================================
 W R F - G C   T I M E R S
    Domain           1 (Units: s)
 =================================================
  => Coupler Component                       1.509
   -- Physics & Parameterization             0.442
   -- Diagnostics Out                        0.000
  => GEOS-Chem Column                      123.935
  ===> Total Chemistry                     125.444
  => WRF                                   919.282
  ===> Total WRF-GC                       1044.726
 max optd  4.5185168E+30
 max taucldi  0.6208465    
 max taucldw  1.6360753E-04
 Switching is not necessary as we are already
 in the right domain!
 GIGC_Chunk_Run: Running for in-PET grid #           1
 GIGC_Chunk_Run: Received new grid IM, JM, LM =          14           9
          49
 =================================================
 W R F - G C   T I M E R S
    Domain           1 (Units: s)
 =================================================
  => Coupler Component                       1.542
   -- Physics & Parameterization             0.451
   -- Diagnostics Out                        0.000
  => GEOS-Chem Column                      124.872
  ===> Total Chemistry                     126.415
  => WRF                                   937.485
  ===> Total WRF-GC                       1063.900
 max optd  4.5185168E+30
 max taucldi  0.6245126    
 max taucldw  1.7202296E-04
 Switching is not necessary as we are already
 in the right domain!
 GIGC_Chunk_Run: Running for in-PET grid #           1
 GIGC_Chunk_Run: Received new grid IM, JM, LM =          14           9
          49
 =================================================
 W R F - G C   T I M E R S
    Domain           1 (Units: s)
 =================================================
  => Coupler Component                       1.573
   -- Physics & Parameterization             0.461
   -- Diagnostics Out                        0.000
  => GEOS-Chem Column                      125.817
  ===> Total Chemistry                     127.390
  => WRF                                   955.756
  ===> Total WRF-GC                       1083.146
 HOURLY EMISSIONS UPDATE TIME    14400.0       0.0
mediation_integrate: med_read_wrf_chem_emissions: Read emissions for time 2018-01-01_04:00:00
 max optd  4.5185168E+30
 max taucldi  0.6247844    
 max taucldw  1.7943364E-04
 Switching is not necessary as we are already
 in the right domain!
 GIGC_Chunk_Run: Running for in-PET grid #           1
 GIGC_Chunk_Run: Received new grid IM, JM, LM =          14           9
          49
 =================================================
 W R F - G C   T I M E R S
    Domain           1 (Units: s)
 =================================================
  => Coupler Component                       1.601
   -- Physics & Parameterization             0.471
   -- Diagnostics Out                        0.000
  => GEOS-Chem Column                      126.769
  ===> Total Chemistry                     128.370
  => WRF                                   974.021
  ===> Total WRF-GC                       1102.390
 max optd  4.5185168E+30
 max taucldi  0.6265584    
 max taucldw  1.8569587E-04
 Switching is not necessary as we are already
 in the right domain!
 GIGC_Chunk_Run: Running for in-PET grid #           1
 GIGC_Chunk_Run: Received new grid IM, JM, LM =          14           9
          49
 =================================================
 W R F - G C   T I M E R S
    Domain           1 (Units: s)
 =================================================
  => Coupler Component                       1.631
   -- Physics & Parameterization             0.481
   -- Diagnostics Out                        0.000
  => GEOS-Chem Column                      127.718
  ===> Total Chemistry                     129.349
  => WRF                                   992.258
  ===> Total WRF-GC                       1121.607
 max optd  4.5185168E+30
 max taucldi  0.6229712    
 max taucldw  1.9097549E-04
 Switching is not necessary as we are already
 in the right domain!
 GIGC_Chunk_Run: Running for in-PET grid #           1
 GIGC_Chunk_Run: Received new grid IM, JM, LM =          14           9
          49
 =================================================
 W R F - G C   T I M E R S
    Domain           1 (Units: s)
 =================================================
  => Coupler Component                       1.661
   -- Physics & Parameterization             0.491
   -- Diagnostics Out                        0.000
  => GEOS-Chem Column                      128.671
  ===> Total Chemistry                     130.332
  => WRF                                  1010.597
  ===> Total WRF-GC                       1140.929
 max optd  4.5185168E+30
 max taucldi  0.6175462    
 max taucldw  1.9541784E-04
 Switching is not necessary as we are already
 in the right domain!
 GIGC_Chunk_Run: Running for in-PET grid #           1
 GIGC_Chunk_Run: Received new grid IM, JM, LM =          14           9
          49
 =================================================
 W R F - G C   T I M E R S
    Domain           1 (Units: s)
 =================================================
  => Coupler Component                       1.691
   -- Physics & Parameterization             0.500
   -- Diagnostics Out                        0.000
  => GEOS-Chem Column                      129.616
  ===> Total Chemistry                     131.307
  => WRF                                  1028.816
  ===> Total WRF-GC                       1160.123
 max optd  4.5185168E+30
 max taucldi  0.6110024    
 max taucldw  1.9873136E-04
 Switching is not necessary as we are already
 in the right domain!
 GIGC_Chunk_Run: Running for in-PET grid #           1
 GIGC_Chunk_Run: Received new grid IM, JM, LM =          14           9
          49
 =================================================
 W R F - G C   T I M E R S
    Domain           1 (Units: s)
 =================================================
  => Coupler Component                       1.720
   -- Physics & Parameterization             0.510
   -- Diagnostics Out                        0.000
  => GEOS-Chem Column                      130.567
  ===> Total Chemistry                     132.287
  => WRF                                  1047.090
  ===> Total WRF-GC                       1179.377
 max optd  4.5185168E+30
 max taucldi  0.6035734    
 max taucldw  2.0049103E-04
 Switching is not necessary as we are already
 in the right domain!
 GIGC_Chunk_Run: Running for in-PET grid #           1
 GIGC_Chunk_Run: Received new grid IM, JM, LM =          14           9
          49
 =================================================
 W R F - G C   T I M E R S
    Domain           1 (Units: s)
 =================================================
  => Coupler Component                       1.751
   -- Physics & Parameterization             0.520
   -- Diagnostics Out                        0.000
  => GEOS-Chem Column                      131.512
  ===> Total Chemistry                     133.264
  => WRF                                  1065.322
  ===> Total WRF-GC                       1198.586
 max optd  4.5185168E+30
 max taucldi  0.5952338    
 max taucldw  2.0090243E-04
 Switching is not necessary as we are already
 in the right domain!
 GIGC_Chunk_Run: Running for in-PET grid #           1
 GIGC_Chunk_Run: Received new grid IM, JM, LM =          14           9
          49
 =================================================
 W R F - G C   T I M E R S
    Domain           1 (Units: s)
 =================================================
  => Coupler Component                       1.780
   -- Physics & Parameterization             0.529
   -- Diagnostics Out                        0.000
  => GEOS-Chem Column                      132.463
  ===> Total Chemistry                     134.243
  => WRF                                  1083.634
  ===> Total WRF-GC                       1217.877
 max optd  4.5185168E+30
 max taucldi  0.5844152    
 max taucldw  2.0027919E-04
 Switching is not necessary as we are already
 in the right domain!
 GIGC_Chunk_Run: Running for in-PET grid #           1
 GIGC_Chunk_Run: Received new grid IM, JM, LM =          14           9
          49
 =================================================
 W R F - G C   T I M E R S
    Domain           1 (Units: s)
 =================================================
  => Coupler Component                       1.819
   -- Physics & Parameterization             0.539
   -- Diagnostics Out                        0.000
  => GEOS-Chem Column                      133.394
  ===> Total Chemistry                     135.213
  => WRF                                  1101.838
  ===> Total WRF-GC                       1237.050
 max optd  4.5185168E+30
 max taucldi  0.5824478    
 max taucldw  1.9905886E-04
 Switching is not necessary as we are already
 in the right domain!
 GIGC_Chunk_Run: Running for in-PET grid #           1
 GIGC_Chunk_Run: Received new grid IM, JM, LM =          14           9
          49
 =================================================
 W R F - G C   T I M E R S
    Domain           1 (Units: s)
 =================================================
  => Coupler Component                       1.849
   -- Physics & Parameterization             0.549
   -- Diagnostics Out                        0.000
  => GEOS-Chem Column                      134.342
  ===> Total Chemistry                     136.191
  => WRF                                  1120.112
  ===> Total WRF-GC                       1256.302
 max optd  4.5185168E+30
 max taucldi  0.5859271    
 max taucldw  1.9755692E-04
 Switching is not necessary as we are already
 in the right domain!
 GIGC_Chunk_Run: Running for in-PET grid #           1
 GIGC_Chunk_Run: Received new grid IM, JM, LM =          14           9
          49
 =================================================
 W R F - G C   T I M E R S
    Domain           1 (Units: s)
 =================================================
  => Coupler Component                       1.881
   -- Physics & Parameterization             0.558
   -- Diagnostics Out                        0.000
  => GEOS-Chem Column                      135.303
  ===> Total Chemistry                     137.184
  => WRF                                  1138.362
  ===> Total WRF-GC                       1275.546
 max optd  4.5185168E+30
 max taucldi  0.5859272    
 max taucldw  1.9606392E-04
 Switching is not necessary as we are already
 in the right domain!
 GIGC_Chunk_Run: Running for in-PET grid #           1
 GIGC_Chunk_Run: Received new grid IM, JM, LM =          14           9
          49
 =================================================
 W R F - G C   T I M E R S
    Domain           1 (Units: s)
 =================================================
  => Coupler Component                       1.912
   -- Physics & Parameterization             0.568
   -- Diagnostics Out                        0.000
  => GEOS-Chem Column                      136.266
  ===> Total Chemistry                     138.178
  => WRF                                  1156.553
  ===> Total WRF-GC                       1294.731
 max optd  4.5185168E+30
 max taucldi  0.5762354    
 max taucldw  1.9463255E-04
 Switching is not necessary as we are already
 in the right domain!
 GIGC_Chunk_Run: Running for in-PET grid #           1
 GIGC_Chunk_Run: Received new grid IM, JM, LM =          14           9
          49
 =================================================
 W R F - G C   T I M E R S
    Domain           1 (Units: s)
 =================================================
  => Coupler Component                       1.940
   -- Physics & Parameterization             0.577
   -- Diagnostics Out                        0.000
  => GEOS-Chem Column                      137.212
  ===> Total Chemistry                     139.152
  => WRF                                  1174.700
  ===> Total WRF-GC                       1313.852
 HOURLY EMISSIONS UPDATE TIME    18000.0       0.0
mediation_integrate: med_read_wrf_chem_emissions: Read emissions for time 2018-01-01_05:00:00
 max optd  4.5185168E+30
 max taucldi  0.5663539    
 max taucldw  1.9539140E-04
 Switching is not necessary as we are already
 in the right domain!
 GIGC_Chunk_Run: Running for in-PET grid #           1
 GIGC_Chunk_Run: Received new grid IM, JM, LM =          14           9
          49
 =================================================
 W R F - G C   T I M E R S
    Domain           1 (Units: s)
 =================================================
  => Coupler Component                       1.974
   -- Physics & Parameterization             0.586
   -- Diagnostics Out                        0.000
  => GEOS-Chem Column                      138.176
  ===> Total Chemistry                     140.149
  => WRF                                  1192.989
  ===> Total WRF-GC                       1333.138
 max optd  4.5185168E+30
 max taucldi  0.5704083    
 max taucldw  1.9571296E-04
 Switching is not necessary as we are already
 in the right domain!
 GIGC_Chunk_Run: Running for in-PET grid #           1
 GIGC_Chunk_Run: Received new grid IM, JM, LM =          14           9
          49
 =================================================
 W R F - G C   T I M E R S
    Domain           1 (Units: s)
 =================================================
  => Coupler Component                       2.005
   -- Physics & Parameterization             0.596
   -- Diagnostics Out                        0.000
  => GEOS-Chem Column                      139.118
  ===> Total Chemistry                     141.123
  => WRF                                  1211.170
  ===> Total WRF-GC                       1352.292
 max optd  4.5185168E+30
 max taucldi  0.5793436    
 max taucldw  1.9685041E-04
 Switching is not necessary as we are already
 in the right domain!
 GIGC_Chunk_Run: Running for in-PET grid #           1
 GIGC_Chunk_Run: Received new grid IM, JM, LM =          14           9
          49
 =================================================
 W R F - G C   T I M E R S
    Domain           1 (Units: s)
 =================================================
  => Coupler Component                       2.035
   -- Physics & Parameterization             0.606
   -- Diagnostics Out                        0.000
  => GEOS-Chem Column                      140.074
  ===> Total Chemistry                     142.109
  => WRF                                  1229.384
  ===> Total WRF-GC                       1371.493
 max optd  4.5185168E+30
 max taucldi  0.5931789    
 max taucldw  1.9730214E-04
 Switching is not necessary as we are already
 in the right domain!
 GIGC_Chunk_Run: Running for in-PET grid #           1
 GIGC_Chunk_Run: Received new grid IM, JM, LM =          14           9
          49
 =================================================
 W R F - G C   T I M E R S
    Domain           1 (Units: s)
 =================================================
  => Coupler Component                       2.067
   -- Physics & Parameterization             0.616
   -- Diagnostics Out                        0.000
  => GEOS-Chem Column                      141.027
  ===> Total Chemistry                     143.094
  => WRF                                  1247.639
  ===> Total WRF-GC                       1390.733
 max optd  4.5185168E+30
 max taucldi  0.6160430    
 max taucldw  1.9742564E-04
 Switching is not necessary as we are already
 in the right domain!
 GIGC_Chunk_Run: Running for in-PET grid #           1
 GIGC_Chunk_Run: Received new grid IM, JM, LM =          14           9
          49
 =================================================
 W R F - G C   T I M E R S
    Domain           1 (Units: s)
 =================================================
  => Coupler Component                       2.097
   -- Physics & Parameterization             0.625
   -- Diagnostics Out                        0.000
  => GEOS-Chem Column                      141.971
  ===> Total Chemistry                     144.068
  => WRF                                  1265.915
  ===> Total WRF-GC                       1409.983
 max optd  4.5185168E+30
 max taucldi  0.6343477    
 max taucldw  2.0040449E-04
 Switching is not necessary as we are already
 in the right domain!
 GIGC_Chunk_Run: Running for in-PET grid #           1
 GIGC_Chunk_Run: Received new grid IM, JM, LM =          14           9
          49
 =================================================
 W R F - G C   T I M E R S
    Domain           1 (Units: s)
 =================================================
  => Coupler Component                       2.130
   -- Physics & Parameterization             0.635
   -- Diagnostics Out                        0.000
  => GEOS-Chem Column                      142.923
  ===> Total Chemistry                     145.053
  => WRF                                  1284.110
  ===> Total WRF-GC                       1429.162
 max optd  4.5185168E+30
 max taucldi  0.6422374    
 max taucldw  2.0263334E-04
 Switching is not necessary as we are already
 in the right domain!
 GIGC_Chunk_Run: Running for in-PET grid #           1
 GIGC_Chunk_Run: Received new grid IM, JM, LM =          14           9
          49
 =================================================
 W R F - G C   T I M E R S
    Domain           1 (Units: s)
 =================================================
  => Coupler Component                       2.167
   -- Physics & Parameterization             0.644
   -- Diagnostics Out                        0.000
  => GEOS-Chem Column                      143.861
  ===> Total Chemistry                     146.028
  => WRF                                  1302.407
  ===> Total WRF-GC                       1448.434
 max optd  4.5185168E+30
 max taucldi  0.6479794    
 max taucldw  2.0429236E-04
 Switching is not necessary as we are already
 in the right domain!
 GIGC_Chunk_Run: Running for in-PET grid #           1
 GIGC_Chunk_Run: Received new grid IM, JM, LM =          14           9
          49
 =================================================
 W R F - G C   T I M E R S
    Domain           1 (Units: s)
 =================================================
  => Coupler Component                       2.197
   -- Physics & Parameterization             0.654
   -- Diagnostics Out                        0.000
  => GEOS-Chem Column                      144.804
  ===> Total Chemistry                     147.001
  => WRF                                  1320.649
  ===> Total WRF-GC                       1467.651
 max optd  4.5185168E+30
 max taucldi  0.6485956    
 max taucldw  2.0595345E-04
 Switching is not necessary as we are already
 in the right domain!
 GIGC_Chunk_Run: Running for in-PET grid #           1
 GIGC_Chunk_Run: Received new grid IM, JM, LM =          14           9
          49
 =================================================
 W R F - G C   T I M E R S
    Domain           1 (Units: s)
 =================================================
  => Coupler Component                       2.235
   -- Physics & Parameterization             0.663
   -- Diagnostics Out                        0.000
  => GEOS-Chem Column                      145.746
  ===> Total Chemistry                     147.980
  => WRF                                  1338.912
  ===> Total WRF-GC                       1486.892
 max optd  4.5185168E+30
 max taucldi  0.6527294    
 max taucldw  2.0769179E-04
 Switching is not necessary as we are already
 in the right domain!
 GIGC_Chunk_Run: Running for in-PET grid #           1
 GIGC_Chunk_Run: Received new grid IM, JM, LM =          14           9
          49
 =================================================
 W R F - G C   T I M E R S
    Domain           1 (Units: s)
 =================================================
  => Coupler Component                       2.264
   -- Physics & Parameterization             0.673
   -- Diagnostics Out                        0.000
  => GEOS-Chem Column                      146.692
  ===> Total Chemistry                     148.956
  => WRF                                  1357.449
  ===> Total WRF-GC                       1506.405
 max optd  4.5185168E+30
 max taucldi  0.6664053    
 max taucldw  2.0927098E-04
 Switching is not necessary as we are already
 in the right domain!
 GIGC_Chunk_Run: Running for in-PET grid #           1
 GIGC_Chunk_Run: Received new grid IM, JM, LM =          14           9
          49
 =================================================
 W R F - G C   T I M E R S
    Domain           1 (Units: s)
 =================================================
  => Coupler Component                       2.294
   -- Physics & Parameterization             0.682
   -- Diagnostics Out                        0.000
  => GEOS-Chem Column                      147.651
  ===> Total Chemistry                     149.945
  => WRF                                  1375.702
  ===> Total WRF-GC                       1525.647
 max optd  4.5185168E+30
 max taucldi  0.6727941    
 max taucldw  2.1042352E-04
 Switching is not necessary as we are already
 in the right domain!
 GIGC_Chunk_Run: Running for in-PET grid #           1
 GIGC_Chunk_Run: Received new grid IM, JM, LM =          14           9
          49
 =================================================
 W R F - G C   T I M E R S
    Domain           1 (Units: s)
 =================================================
  => Coupler Component                       2.326
   -- Physics & Parameterization             0.692
   -- Diagnostics Out                        0.000
  => GEOS-Chem Column                      148.594
  ===> Total Chemistry                     150.920
  => WRF                                  1393.914
  ===> Total WRF-GC                       1544.834
 HOURLY EMISSIONS UPDATE TIME    21600.0       0.0
mediation_integrate: med_read_wrf_chem_emissions: Read emissions for time 2018-01-01_06:00:00
 max optd  4.5185168E+30
 max taucldi  0.6795788    
 max taucldw  2.1113431E-04
 Switching is not necessary as we are already
 in the right domain!
 GIGC_Chunk_Run: Running for in-PET grid #           1
 GIGC_Chunk_Run: Received new grid IM, JM, LM =          14           9
          49
 =================================================
 W R F - G C   T I M E R S
    Domain           1 (Units: s)
 =================================================
  => Coupler Component                       2.369
   -- Physics & Parameterization             0.703
   -- Diagnostics Out                        0.000
  => GEOS-Chem Column                      149.530
  ===> Total Chemistry                     151.899
  => WRF                                  1852.693
  ===> Total WRF-GC                       2004.592
 max optd  4.5185168E+30
 max taucldi  0.6793180    
 max taucldw  2.1170189E-04
 Switching is not necessary as we are already
 in the right domain!
 GIGC_Chunk_Run: Running for in-PET grid #           1
 GIGC_Chunk_Run: Received new grid IM, JM, LM =          14           9
          49
 =================================================
 W R F - G C   T I M E R S
    Domain           1 (Units: s)
 =================================================
  => Coupler Component                       2.408
   -- Physics & Parameterization             0.712
   -- Diagnostics Out                        0.000
  => GEOS-Chem Column                      150.458
  ===> Total Chemistry                     152.866
  => WRF                                  1870.940
  ===> Total WRF-GC                       2023.806
 max optd  4.5185168E+30
 max taucldi  0.6745766    
 max taucldw  2.1267078E-04
 Switching is not necessary as we are already
 in the right domain!
 GIGC_Chunk_Run: Running for in-PET grid #           1
 GIGC_Chunk_Run: Received new grid IM, JM, LM =          14           9
          49
 =================================================
 W R F - G C   T I M E R S
    Domain           1 (Units: s)
 =================================================
  => Coupler Component                       2.447
   -- Physics & Parameterization             0.722
   -- Diagnostics Out                        0.000
  => GEOS-Chem Column                      151.396
  ===> Total Chemistry                     153.843
  => WRF                                  1889.343
  ===> Total WRF-GC                       2043.186
 max optd  4.5185168E+30
 max taucldi  0.6668887    
 max taucldw  2.1340769E-04
 Switching is not necessary as we are already
 in the right domain!
 GIGC_Chunk_Run: Running for in-PET grid #           1
 GIGC_Chunk_Run: Received new grid IM, JM, LM =          14           9
          49
 =================================================
 W R F - G C   T I M E R S
    Domain           1 (Units: s)
 =================================================
  => Coupler Component                       2.484
[...]
  => GEOS-Chem Column                      193.891
  ===> Total Chemistry                     197.852
  => WRF                                  2712.517
  ===> Total WRF-GC                       2910.369
 HOURLY EMISSIONS UPDATE TIME    36000.0       0.0
mediation_integrate: med_read_wrf_chem_emissions: Read emissions for time 2018-01-01_10:00:00
 max optd  4.5185168E+30
 max taucldi  0.1070358    
 max taucldw  2.5237619E-04
 Switching is not necessary as we are already
 in the right domain!
 GIGC_Chunk_Run: Running for in-PET grid #           1
 GIGC_Chunk_Run: Received new grid IM, JM, LM =          14           9
          49
 =================================================
 W R F - G C   T I M E R S
    Domain           1 (Units: s)
 =================================================
  => Coupler Component                       3.993
   -- Physics & Parameterization             1.166
   -- Diagnostics Out                        0.000
  => GEOS-Chem Column                      194.847
  ===> Total Chemistry                     198.840
  => WRF                                  2730.859
  ===> Total WRF-GC                       2929.699
 max optd  4.5185168E+30
 max taucldi  0.1191391    
 max taucldw  2.5364698E-04
 Switching is not necessary as we are already
 in the right domain!
 GIGC_Chunk_Run: Running for in-PET grid #           1
 GIGC_Chunk_Run: Received new grid IM, JM, LM =          14           9
          49
 =================================================
 W R F - G C   T I M E R S
    Domain           1 (Units: s)
 =================================================
  => Coupler Component                       4.026
   -- Physics & Parameterization             1.175
   -- Diagnostics Out                        0.000
  => GEOS-Chem Column                      195.789
  ===> Total Chemistry                     199.815
  => WRF                                  2749.101
  ===> Total WRF-GC                       2948.917
 max optd  4.5185168E+30
 max taucldi  0.1285388    
 max taucldw  2.5493989E-04
 Switching is not necessary as we are already
 in the right domain!
 GIGC_Chunk_Run: Running for in-PET grid #           1
 GIGC_Chunk_Run: Received new grid IM, JM, LM =          14           9
          49
 =================================================
 W R F - G C   T I M E R S
    Domain           1 (Units: s)
 =================================================
  => Coupler Component                       4.066
   -- Physics & Parameterization             1.185
   -- Diagnostics Out                        0.000
  => GEOS-Chem Column                      196.728
  ===> Total Chemistry                     200.793
  => WRF                                  2767.352
  ===> Total WRF-GC                       2968.145
 max optd  4.5185168E+30
 max taucldi  9.6336447E-02
 max taucldw  2.5652759E-04
 Switching is not necessary as we are already
 in the right domain!
 GIGC_Chunk_Run: Running for in-PET grid #           1
 GIGC_Chunk_Run: Received new grid IM, JM, LM =          14           9
          49
 =================================================
 W R F - G C   T I M E R S
    Domain           1 (Units: s)
 =================================================
  => Coupler Component                       4.099
   -- Physics & Parameterization             1.195
   -- Diagnostics Out                        0.000
  => GEOS-Chem Column                      197.677
  ===> Total Chemistry                     201.775
  => WRF                                  2785.713
  ===> Total WRF-GC                       2987.488
 max optd  4.5185168E+30
 max taucldi  4.3745611E-02
 max taucldw  2.5850258E-04
 Switching is not necessary as we are already
 in the right domain!
 GIGC_Chunk_Run: Running for in-PET grid #           1
 GIGC_Chunk_Run: Received new grid IM, JM, LM =          14           9
          49
 =================================================
 W R F - G C   T I M E R S
    Domain           1 (Units: s)
 =================================================
  => Coupler Component                       4.137
   -- Physics & Parameterization             1.205
   -- Diagnostics Out                        0.000
  => GEOS-Chem Column                      198.624
  ===> Total Chemistry                     202.761
  => WRF                                  2803.992
  ===> Total WRF-GC                       3006.753
 max optd  4.5185168E+30
 max taucldi  3.2559816E-02
 max taucldw  2.6084759E-04
 Switching is not necessary as we are already
 in the right domain!
 GIGC_Chunk_Run: Running for in-PET grid #           1
 GIGC_Chunk_Run: Received new grid IM, JM, LM =          14           9
          49
 =================================================
 W R F - G C   T I M E R S
    Domain           1 (Units: s)
 =================================================
  => Coupler Component                       4.171
   -- Physics & Parameterization             1.214
   -- Diagnostics Out                        0.000
  => GEOS-Chem Column                      199.565
  ===> Total Chemistry                     203.735
  => WRF                                  2822.211
  ===> Total WRF-GC                       3025.946
 max optd  4.5185168E+30
 max taucldi  2.3584498E-02
 max taucldw  2.6349793E-04
 Switching is not necessary as we are already
 in the right domain!
 GIGC_Chunk_Run: Running for in-PET grid #           1
 GIGC_Chunk_Run: Received new grid IM, JM, LM =          14           9
          49
 =================================================
 W R F - G C   T I M E R S
    Domain           1 (Units: s)
 =================================================
  => Coupler Component                       4.203
   -- Physics & Parameterization             1.224
   -- Diagnostics Out                        0.000
  => GEOS-Chem Column                      200.527
  ===> Total Chemistry                     204.730
  => WRF                                  2840.525
  ===> Total WRF-GC                       3045.255
 max optd  4.5185168E+30
 max taucldi  4.2300198E-02
 max taucldw  2.6620034E-04
 Switching is not necessary as we are already
 in the right domain!
 GIGC_Chunk_Run: Running for in-PET grid #           1
 GIGC_Chunk_Run: Received new grid IM, JM, LM =          14           9
          49
 =================================================
 W R F - G C   T I M E R S
    Domain           1 (Units: s)
 =================================================
  => Coupler Component                       4.236
   -- Physics & Parameterization             1.234
   -- Diagnostics Out                        0.000
  => GEOS-Chem Column                      201.479
  ===> Total Chemistry                     205.716
  => WRF                                  2858.763
  ===> Total WRF-GC                       3064.478
 max optd  4.5185168E+30
 max taucldi  8.4178798E-02
 max taucldw  2.6879841E-04
 Switching is not necessary as we are already
 in the right domain!
 GIGC_Chunk_Run: Running for in-PET grid #           1
 GIGC_Chunk_Run: Received new grid IM, JM, LM =          14           9
          49
 =================================================
 W R F - G C   T I M E R S
    Domain           1 (Units: s)
 =================================================
  => Coupler Component                       4.274
   -- Physics & Parameterization             1.244
   -- Diagnostics Out                        0.000
  => GEOS-Chem Column                      202.413
  ===> Total Chemistry                     206.687
  => WRF                                  2877.007
  ===> Total WRF-GC                       3083.694
 max optd  4.5185168E+30
 max taucldi  0.1128236    
 max taucldw  2.7118757E-04
 Switching is not necessary as we are already
 in the right domain!
 GIGC_Chunk_Run: Running for in-PET grid #           1
 GIGC_Chunk_Run: Received new grid IM, JM, LM =          14           9
          49
 =================================================
 W R F - G C   T I M E R S
    Domain           1 (Units: s)
 =================================================
  => Coupler Component                       4.304
   -- Physics & Parameterization             1.254
   -- Diagnostics Out                        0.000
  => GEOS-Chem Column                      203.369
  ===> Total Chemistry                     207.673
  => WRF                                  2895.354
  ===> Total WRF-GC                       3103.027
 max optd  4.5185168E+30
 max taucldi  0.1063345    
 max taucldw  2.7344431E-04
 Switching is not necessary as we are already
 in the right domain!
 GIGC_Chunk_Run: Running for in-PET grid #           1
 GIGC_Chunk_Run: Received new grid IM, JM, LM =          14           9
          49
 =================================================
 W R F - G C   T I M E R S
    Domain           1 (Units: s)
 =================================================
  => Coupler Component                       4.339
   -- Physics & Parameterization             1.263
   -- Diagnostics Out                        0.000
  => GEOS-Chem Column                      204.313
  ===> Total Chemistry                     208.653
  => WRF                                  2913.589
  ===> Total WRF-GC                       3122.242
 max optd  4.5185168E+30
 max taucldi  0.1017192    
 max taucldw  2.7582224E-04
 Switching is not necessary as we are already
 in the right domain!
 GIGC_Chunk_Run: Running for in-PET grid #           1
 GIGC_Chunk_Run: Received new grid IM, JM, LM =          14           9
          49
 =================================================
 W R F - G C   T I M E R S
    Domain           1 (Units: s)
 =================================================
  => Coupler Component                       4.373
   -- Physics & Parameterization             1.272
   -- Diagnostics Out                        0.000
  => GEOS-Chem Column                      205.281
  ===> Total Chemistry                     209.654
  => WRF                                  2931.939
  ===> Total WRF-GC                       3141.593
 HOURLY EMISSIONS UPDATE TIME    39600.0       0.0
mediation_integrate: med_read_wrf_chem_emissions: Read emissions for time 2018-01-01_11:00:00
 max optd  4.5185168E+30
 max taucldi  9.6577421E-02
 max taucldw  2.7835212E-04
 Switching is not necessary as we are already
 in the right domain!
 GIGC_Chunk_Run: Running for in-PET grid #           1
 GIGC_Chunk_Run: Received new grid IM, JM, LM =          14           9
          49
 =================================================
 W R F - G C   T I M E R S
    Domain           1 (Units: s)
 =================================================
  => Coupler Component                       4.409
   -- Physics & Parameterization             1.283
   -- Diagnostics Out                        0.000
  => GEOS-Chem Column                      206.207
  ===> Total Chemistry                     210.616
  => WRF                                  2950.196
  ===> Total WRF-GC                       3160.812
 max optd  4.5185168E+30
 max taucldi  9.4121583E-02
 max taucldw  2.8090656E-04
 Switching is not necessary as we are already
 in the right domain!
 GIGC_Chunk_Run: Running for in-PET grid #           1
 GIGC_Chunk_Run: Received new grid IM, JM, LM =          14           9
          49
 =================================================
 W R F - G C   T I M E R S
    Domain           1 (Units: s)
 =================================================
  => Coupler Component                       4.439
   -- Physics & Parameterization             1.292
   -- Diagnostics Out                        0.000
  => GEOS-Chem Column                      207.162
  ===> Total Chemistry                     211.601
  => WRF                                  2968.451
  ===> Total WRF-GC                       3180.052
 max optd  4.5185168E+30
 max taucldi  9.0482876E-02
 max taucldw  2.8348225E-04
 Switching is not necessary as we are already
 in the right domain!
 GIGC_Chunk_Run: Running for in-PET grid #           1
 GIGC_Chunk_Run: Received new grid IM, JM, LM =          14           9
          49
 =================================================
 W R F - G C   T I M E R S
    Domain           1 (Units: s)
 =================================================
  => Coupler Component                       4.468
   -- Physics & Parameterization             1.301
   -- Diagnostics Out                        0.000
  => GEOS-Chem Column                      208.116
  ===> Total Chemistry                     212.584
  => WRF                                  2986.801
  ===> Total WRF-GC                       3199.385
 max optd  4.5185168E+30
 max taucldi  0.1062136    
 max taucldw  2.8599106E-04
 Switching is not necessary as we are already
 in the right domain!
 GIGC_Chunk_Run: Running for in-PET grid #           1
 GIGC_Chunk_Run: Received new grid IM, JM, LM =          14           9
          49
 =================================================
 W R F - G C   T I M E R S
    Domain           1 (Units: s)
 =================================================
  => Coupler Component                       4.499
   -- Physics & Parameterization             1.311
   -- Diagnostics Out                        0.000
  => GEOS-Chem Column                      209.079
  ===> Total Chemistry                     213.578
  => WRF                                  3005.196
  ===> Total WRF-GC                       3218.774
 max optd  4.5185168E+30
 max taucldi  0.1364838    
 max taucldw  2.8856943E-04
 Switching is not necessary as we are already
 in the right domain!
 GIGC_Chunk_Run: Running for in-PET grid #           1
 GIGC_Chunk_Run: Received new grid IM, JM, LM =          14           9
          49
 =================================================
 W R F - G C   T I M E R S
    Domain           1 (Units: s)
 =================================================
  => Coupler Component                       4.529
   -- Physics & Parameterization             1.321
   -- Diagnostics Out                        0.000
  => GEOS-Chem Column                      210.039
  ===> Total Chemistry                     214.568
  => WRF                                  3023.713
  ===> Total WRF-GC                       3238.281
 max optd  4.5185168E+30
 max taucldi  0.1344665    
 max taucldw  2.9115635E-04
 Switching is not necessary as we are already
 in the right domain!
 GIGC_Chunk_Run: Running for in-PET grid #           1
 GIGC_Chunk_Run: Received new grid IM, JM, LM =          14           9
          49
 =================================================
 W R F - G C   T I M E R S
    Domain           1 (Units: s)
 =================================================
  => Coupler Component                       4.569
   -- Physics & Parameterization             1.330
   -- Diagnostics Out                        0.000
  => GEOS-Chem Column                      210.979
  ===> Total Chemistry                     215.548
  => WRF                                  3042.184
  ===> Total WRF-GC                       3257.732
 max optd  4.5185168E+30
 max taucldi  0.1310036    
 max taucldw  2.9357625E-04
 Switching is not necessary as we are already
 in the right domain!
 GIGC_Chunk_Run: Running for in-PET grid #           1
 GIGC_Chunk_Run: Received new grid IM, JM, LM =          14           9
          49
 =================================================
 W R F - G C   T I M E R S
    Domain           1 (Units: s)
 =================================================
  => Coupler Component                       4.599
   -- Physics & Parameterization             1.340
   -- Diagnostics Out                        0.000
  => GEOS-Chem Column                      211.930
  ===> Total Chemistry                     216.528
  => WRF                                  3060.855
  ===> Total WRF-GC                       3277.384
 max optd  4.5185168E+30
 max taucldi  0.1404053    
 max taucldw  2.9593267E-04
 Switching is not necessary as we are already
 in the right domain!
 GIGC_Chunk_Run: Running for in-PET grid #           1
 GIGC_Chunk_Run: Received new grid IM, JM, LM =          14           9
          49
 =================================================
 W R F - G C   T I M E R S
    Domain           1 (Units: s)
 =================================================
  => Coupler Component                       4.628
   -- Physics & Parameterization             1.350
   -- Diagnostics Out                        0.000
  => GEOS-Chem Column                      212.878
  ===> Total Chemistry                     217.507
  => WRF                                  3079.542
  ===> Total WRF-GC                       3297.049
 max optd  4.5185168E+30
 max taucldi  0.1149969    
 max taucldw  2.9846176E-04
 Switching is not necessary as we are already
 in the right domain!
 GIGC_Chunk_Run: Running for in-PET grid #           1
 GIGC_Chunk_Run: Received new grid IM, JM, LM =          14           9
          49
 =================================================
 W R F - G C   T I M E R S
    Domain           1 (Units: s)
 =================================================
  => Coupler Component                       4.663
   -- Physics & Parameterization             1.359
   -- Diagnostics Out                        0.000
  => GEOS-Chem Column                      213.842
  ===> Total Chemistry                     218.505
  => WRF                                  3098.342
  ===> Total WRF-GC                       3316.847
 max optd  4.5185168E+30
 max taucldi  8.7852046E-02
 max taucldw  3.0111836E-04
 Switching is not necessary as we are already
 in the right domain!
 GIGC_Chunk_Run: Running for in-PET grid #           1
 GIGC_Chunk_Run: Received new grid IM, JM, LM =          14           9
          49
 =================================================
 W R F - G C   T I M E R S
    Domain           1 (Units: s)
 =================================================
  => Coupler Component                       4.693
   -- Physics & Parameterization             1.369
   -- Diagnostics Out                        0.000
  => GEOS-Chem Column                      214.789
  ===> Total Chemistry                     219.482
  => WRF                                  3117.327
  ===> Total WRF-GC                       3336.810
 max optd  4.5185168E+30
 max taucldi  4.6228766E-02
 max taucldw  3.0392941E-04
 Switching is not necessary as we are already
 in the right domain!
 GIGC_Chunk_Run: Running for in-PET grid #           1
 GIGC_Chunk_Run: Received new grid IM, JM, LM =          14           9
          49
 =================================================
 W R F - G C   T I M E R S
    Domain           1 (Units: s)
 =================================================
  => Coupler Component                       4.729
   -- Physics & Parameterization             1.379
   -- Diagnostics Out                        0.000
  => GEOS-Chem Column                      215.740
  ===> Total Chemistry                     220.468
  => WRF                                  3136.231
  ===> Total WRF-GC                       3356.699
 max optd  4.5185168E+30
 max taucldi  3.1766027E-02
 max taucldw  3.0677384E-04
 Switching is not necessary as we are already
 in the right domain!
 GIGC_Chunk_Run: Running for in-PET grid #           1
 GIGC_Chunk_Run: Received new grid IM, JM, LM =          14           9
          49
 =================================================
 W R F - G C   T I M E R S
    Domain           1 (Units: s)
 =================================================
  => Coupler Component                       4.771
   -- Physics & Parameterization             1.388
   -- Diagnostics Out                        0.000
  => GEOS-Chem Column                      216.670
  ===> Total Chemistry                     221.441
  => WRF                                  3155.079
  ===> Total WRF-GC                       3376.520
d01 2018-01-01_12:00:00 wrf: SUCCESS COMPLETE WRF
