taskid: 3928 hostname: ip-172-31-13-85
Quilting with   1 groups of   0 I/O tasks.
 Ntasks in X           64 , ntasks in Y           72
--- WARNING: traj_opt is zero, but num_traj is not zero; setting num_traj to zero.
--- NOTE: sst_update is 0, setting io_form_auxinput4 = 0 and auxinput4_interval = 0 for all domains
--- NOTE: grid_fdda is 0 for domain      1, setting gfdda interval and ending time to 0 for that domain.
--- NOTE: both grid_sfdda and pxlsm_soil_nudge are 0 for domain      1, setting sgfdda interval and ending time to 0 for that domain.
--- NOTE: obs_nudge_opt is 0 for domain      1, setting obs nudging interval and ending time to 0 for that domain.
--- NOTE: bl_pbl_physics /= 4, implies mfshconv must be 0, resetting
Need MYNN PBL for icloud_bl = 1, resetting to 0
*************************************
No physics suite selected.
Physics options will be used directly from the namelist.
*************************************
--- NOTE: RRTMG radiation is in use, setting:  levsiz=59, alevsiz=12, no_src_types=6
--- NOTE: num_soil_layers has been set to      4
WRF V3.9.1.1 MODEL
 *************************************
 Parent domain
 ids,ide,jds,jde            1         950           1         650
 ims,ime,jms,jme          354         382         544         566
 ips,ipe,jps,jpe          361         375         551         559
 *************************************
DYNAMICS OPTION: Eulerian Mass Coordinate
   alloc_space_field: domain            1 ,              203623800  bytes allocated
  med_initialdata_input: calling input_input
Max map factor in domain 1 =  1.40. Scale the dt in the model accordingly.
INPUT LandUse = "USGS"
 LANDUSE TYPE = "USGS" FOUND          33  CATEGORIES           2  SEASONS WATER CATEGORY =           16  SNOW CATEGORY =           24
INITIALIZE THREE Noah LSM RELATED TABLES
*****************************************************************
  __          _______  ______       _____  _____ _    _ _____
  \ \        / /  __ \|  ____|     / ____|/ ____| |  | |  __ \
   \ \  /\  / /| |__) | |__ ______| |  __| |    | |__| | |__) |
    \ \/  \/ / |  _  /|  __|______| | |_ | |    |  __  |  ___/
     \  /\  /  | | \ \| |         | |__| | |____| |  | | |
      \/  \/   |_|  \_\_|          \_____|\_____|_|  |_|_|
*****************************************************************
         WRF-GC MODEL, VERSION 1811.11 - WRF BINDINGS
 For errors, suggestions & feedback email linhaipeng@pku.edu.cn
*****************************************************************
    This is domain            1
 ### GIGC_Stateful_Mod: Root CPU, after READ_INPUT_FILE
  Linoz Data:  O3 climatology :                  z*=10, 12, ..., 58                             2.700E-08 1.083E-05
  Linoz Data:  Temperature climatology :         z*=10, 12, ..., 58                             1.859E+02 2.904E+02
  Linoz Data:  Column O3 above box climalology : z*=10, 12, ..., 58                             7.538E-02 3.770E+02
  Linoz Data:  P-L O3 climatology (mr/s):        z*=10, 12, ..., 58                            -1.590E-10 2.835E-11
  Linoz Data:  d(P-L)/dO3 (1/s) :                z*=10, 12, ..., 58                            -8.386E-04 7.556E-09
  Linoz Data:  d(P-L)/dT (mr/K) :                z*=10, 12, ..., 58                            -5.742E-12 4.615E-14
  Linoz Data:  d(P-L)/d(column O3) (mr/DU) :     z*=10, 12, ..., 58                            -1.921E-12 5.038E-10
 ### GIGC_Stateful_Mod: Root CPU, after LINOZ_READ
 %%%%%%%%% GIGC IN-PET GRID SWITCHING HACKS %%%%%%%%%
     (Not very) Proudly brought to you by hplin      
 Some debug information:
 ID:           1
 IM, JM, LM:          15           9          49  will be set as PAR
 Allocs: CMN T GC F
 RC at entry-point:           0
 %%%%%%%%%%%%%%%%%%%%%%%%%%%%%%%%%%%%%%%%%%%%%%%%%%%%
 No need to switch HcoState for ID           1
 Exit RC:            0
 %%%%%%%%%    FINISHED GIGC_Switch_Dims    %%%%%%%%%
 GIGC_Chunk_Init: Received new grid IM, JM, LM =          15           9
          49
     ### GIGC_INIT_SIMULATION: after Input_Opt% setups
     ### GIGC_INIT_SIMULATION: after GC_Init_All
     ### GIGC_INIT_SIMULATION: after GC_Init_Extra
     ### GIGC_INIT_SIMULATION: after INIT_FJX
 # GIGC_CHUNK_MOD: after SV save, ID =           1
 WRFGC chemics_init: Following information regarding Input_Opt% (for all doms)
 After domain           1
 HPC:  T
 LPRT:  F
 DoConv:  T
 DoDryDep:  T
 DoEmis:  T
 DoChem:  T
 DoTurb:  T
 DoWetDep:  T

 tropopause_init: DONE intialized domain            1

 mediation_integrate: med_read_wrf_chem_emissions: Open file wrfchemi_00z_d01
 HOURLY EMISSIONS UPDATE TIME        0.0       0.0
mediation_integrate: med_read_wrf_chem_emissions: Read emissions for time 2018-01-01_00:00:00
open_aux_u : error opening wrffirechemi_d01_2018-01-01_00:00:00 for reading. 100
open_aux_u : error opening wrfchemi_gocart_bg_d01 for reading. 100
d01 2018-01-01_00:00:00 Input data processed for aux input   8 for domain   1
open_aux_u : error opening wrfchemv_d01 for reading. 100
 Tile Strategy is not specified. Assuming 1D-Y
WRF TILE   1 IS    361 IE    375 JS    551 JE    559
WRF NUMBER OF TILES =   1
 max optd  3.3547268E+12
 max taucldi  0.0000000E+00
 max taucldw  0.0000000E+00
 =================================================
 W R F - G C   T I M E R S
    Domain           1 (Units: s)
 =================================================
  => Coupler Component                       0.025
   -- Physics & Parameterization             0.001
   -- Diagnostics Out                        0.000
  => GEOS-Chem Column                        0.000
  ===> Total Chemistry                       0.025
  => WRF                                     0.000
  ===> Total WRF-GC                          0.025
 max optd  3.3547268E+12
 max taucldi  1.0000008E-14
 max taucldw  1.0000008E-14
 %%%%%%%%% GIGC IN-PET GRID SWITCHING HACKS %%%%%%%%%
     (Not very) Proudly brought to you by hplin      
 Some debug information:
 ID:           1
 IM, JM, LM:          15           9          49  will be set as PAR
 Allocs: CMN T GC T
 RC at entry-point:           0
 %%%%%%%%%%%%%%%%%%%%%%%%%%%%%%%%%%%%%%%%%%%%%%%%%%%%
 No need to switch HcoState for ID           1
 Debug HcoState nSpc, NX, NY, NZ         163          15           9          49
 Exit RC:            0
 %%%%%%%%%    FINISHED GIGC_Switch_Dims    %%%%%%%%%
 GIGC_Chunk_Run: Running for in-PET grid #           1
 GIGC_Chunk_Run: Received new grid IM, JM, LM =          15           9
          49
HEMCO: Opening /fsx/HEMCO/BIOFUEL/v2014-07/biofuel.geos.4x5.nc
HEMCO: Opening /fsx/HEMCO/BROMINE/v2015-02/Bromocarb_Liang2010.nc
HEMCO: Opening /fsx/HEMCO/ACET/v2014-07/ACET_seawater.generic.1x1.nc
HEMCO: Opening /fsx/HEMCO/SOILNOX/v2014-07/DepReservoirDefault.nc
HEMCO: Opening /fsx/HEMCO/SOILNOX/v2014-07/soilNOx.landtype.generic.025x025.1L.nc
HEMCO: Opening /fsx/HEMCO/SOILNOX/v2014-07/soilNOx.climate.generic.05x05.nc
HEMCO: Opening /fsx/HEMCO/DUST_DEAD/v2014-07/dst_tibds.geos.4x5.nc
HEMCO: Opening /fsx/HEMCO/DUST_DEAD/v2014-07/GOCART_src_fn.geos.4x5.nc
HEMCO: Opening /fsx/HEMCO/MEGAN/v2018-05/MEGAN2.1_EF.geos.025x03125.nc
HEMCO: Opening /fsx/HEMCO/MEGAN/v2017-07/CLM4_PFT.geos.025x03125.nc
HEMCO: Opening /fsx/HEMCO/TIMEZONES/v2015-02/timezones_voronoi_1x1.nc
HEMCO: Opening /fsx/HEMCO/STRAT/v2015-01/Bry/GEOSCCM_Bry.200701.day.nc
HEMCO: Opening /fsx/HEMCO/STRAT/v2015-01/Bry/GEOSCCM_Bry.200701.night.nc
HEMCO: Opening /fsx/HEMCO/OMOC/v2018-01/OMOC.DJF.01x01.nc
HEMCO: Opening /fsx/HEMCO/OMOC/v2018-01/OMOC.MAM.01x01.nc
HEMCO: Opening /fsx/HEMCO/OMOC/v2018-01/OMOC.JJA.01x01.nc
HEMCO: Opening /fsx/HEMCO/OMOC/v2018-01/OMOC.SON.01x01.nc
HEMCO: Opening /fsx/HEMCO/AnnualScalar/v2014-07/AnnualScalar.geos.1x1.nc
HEMCO: Opening /fsx/HEMCO/EDGARv42/v2015-02/NO/EDGAR_hourly_NOxScal.nc
HEMCO: Opening /fsx/HEMCO/MASKS/v2018-09/EMEP_mask.geos.1x1.20151222.nc
HEMCO: Opening /fsx/HEMCO/MASKS/v2018-09/Canada_mask.geos.1x1.nc
HEMCO: Opening /fsx/HEMCO/MASKS/v2018-09/SE_Asia_mask.generic.1x1.nc
HEMCO: Opening /fsx/HEMCO/MASKS/v2018-09/MIX_Asia_mask.generic.025x025.nc
HEMCO: Opening /fsx/HEMCO/MASKS/v2018-09/CONUS_Mask.01x01.nc
HEMCO: Opening /fsx/HEMCO/MASKS/v2018-09/AF_LANDMASK.geos.05x0666.global.nc
HEMCO: Opening /fsx/HEMCO/MASKS/v2018-09/China_mask.generic.1x1.nc
HEMCO: Opening /fsx/HEMCO/MASKS/v2018-09/India_mask.generic.1x1.nc
HEMCO: Opening /fsx/HEMCO/AnnualScalar/v2014-07/AnnualScalar.geos.1x1.nc
HEMCO: Opening /fsx/HEMCO/NH3/v2014-07/NH3_geos.4x5.nc
HEMCO: Opening /fsx/HEMCO/NH3/v2018-04/NH3_Arctic_seabirds.nc
HEMCO: Opening /fsx/HEMCO/CEDS/v2018-08/2014/NO-em-anthro_CMIP_CEDS_2014.nc
HEMCO: Opening /fsx/HEMCO/CEDS/v2018-08/2014/CO-em-anthro_CMIP_CEDS_2014.nc
HEMCO: Opening /fsx/HEMCO/CEDS/v2018-08/2014/SO2-em-anthro_CMIP_CEDS_2014.nc
HEMCO: Opening /fsx/HEMCO/CEDS/v2018-08/2014/NH3-em-anthro_CMIP_CEDS_2014.nc
HEMCO: Opening /fsx/HEMCO/CEDS/v2018-08/2014/BC-em-anthro_CMIP_CEDS_2014.nc
HEMCO: Opening /fsx/HEMCO/CEDS/v2018-08/2014/OC-em-anthro_CMIP_CEDS_2014.nc
HEMCO: Opening /fsx/HEMCO/CEDS/v2018-08/2014/EOH-em-anthro_CMIP_CEDS_2014.nc
HEMCO: Opening /fsx/HEMCO/CEDS/v2018-08/2014/C2H6-em-anthro_CMIP_CEDS_2014.nc
HEMCO: Opening /fsx/HEMCO/CEDS/v2018-08/2014/C3H8-em-anthro_CMIP_CEDS_2014.nc
HEMCO: Opening /fsx/HEMCO/CEDS/v2018-08/2014/ALK4_butanes-em-anthro_CMIP_CEDS_2014.nc
HEMCO: Opening /fsx/HEMCO/CEDS/v2018-08/2014/ALK4_pentanes-em-anthro_CMIP_CEDS_2014.nc
HEMCO: Opening /fsx/HEMCO/CEDS/v2018-08/2014/ALK4_hexanes-em-anthro_CMIP_CEDS_2014.nc
HEMCO: Opening /fsx/HEMCO/CEDS/v2018-08/2014/PRPE-em-anthro_CMIP_CEDS_2014.nc
HEMCO: Opening /fsx/HEMCO/CEDS/v2018-08/2014/BENZ-em-anthro_CMIP_CEDS_2014.nc
HEMCO: Opening /fsx/HEMCO/CEDS/v2018-08/2014/TOLU-em-anthro_CMIP_CEDS_2014.nc
HEMCO: Opening /fsx/HEMCO/CEDS/v2018-08/2014/XYLE-em-anthro_CMIP_CEDS_2014.nc
HEMCO: Opening /fsx/HEMCO/CEDS/v2018-08/2014/CH2O-em-anthro_CMIP_CEDS_2014.nc
HEMCO: Opening /fsx/HEMCO/CEDS/v2018-08/2014/ALD2-em-anthro_CMIP_CEDS_2014.nc
HEMCO: Opening /fsx/HEMCO/CEDS/v2018-08/2014/MEK-em-anthro_CMIP_CEDS_2014.nc
HEMCO: Opening /fsx/HEMCO/CEDS/v2018-08/2014/HCOOH-em-anthro_CMIP_CEDS_2014.nc
HEMCO: Opening /fsx/HEMCO/C2H6_2010/v2017-05/C2H6_global_anth_biof.201001.nc
HEMCO: Opening /fsx/HEMCO/NEI2011/v2017-02-MM/01/NEI11_0.1x0.1_201101_monmean.nc
HEMCO: Opening /fsx/HEMCO/NEI2011/v2017-02-MM/01/NEI11_0.1x0.1_201101_monmean_egu.nc
HEMCO: Opening /fsx/HEMCO/NEI2011/v2017-02-MM/01/NEI11_0.1x0.1_201101_monmean_egupk.nc
HEMCO: Opening /fsx/HEMCO/NEI2011/v2017-02-MM/01/NEI11_0.1x0.1_201101_monmean_oilgas.nc
HEMCO: Opening /fsx/HEMCO/NEI2011/v2017-02-MM/01/NEI11_0.1x0.1_201101_monmean_othpt.nc
HEMCO: Opening /fsx/HEMCO/NEI2011/v2017-02-MM/01/NEI11_0.1x0.1_201101_monmean_ptnonipm.nc
HEMCO: Opening /fsx/HEMCO/IODINE/v2017-09/CH3I_monthly_emissions_Ordonez_2012_COARDS.nc
HEMCO: Opening /fsx/HEMCO/IODINE/v2017-09/CH2I2_monthly_emissions_Ordonez_2012_COARDS.nc
HEMCO: Opening /fsx/HEMCO/IODINE/v2017-09/CH2ICl_monthly_emissions_Ordonez_2012_COARDS.nc
HEMCO: Opening /fsx/HEMCO/IODINE/v2017-09/CH2IBr_monthly_emissions_Ordonez_2012_COARDS.nc
HEMCO: Opening /fsx/HEMCO/CEDS/v2018-08/2014/CO-em-anthro_CMIP_CEDS_2014.nc
HEMCO: Opening /fsx/HEMCO/CEDS/v2018-08/2014/SO2-em-anthro_CMIP_CEDS_2014.nc
HEMCO: Opening /fsx/HEMCO/CEDS/v2018-08/2014/NH3-em-anthro_CMIP_CEDS_2014.nc
HEMCO: Opening /fsx/HEMCO/CEDS/v2018-08/2014/BC-em-anthro_CMIP_CEDS_2014.nc
HEMCO: Opening /fsx/HEMCO/CEDS/v2018-08/2014/OC-em-anthro_CMIP_CEDS_2014.nc
HEMCO: Opening /fsx/HEMCO/CEDS/v2018-08/2014/EOH-em-anthro_CMIP_CEDS_2014.nc
HEMCO: Opening /fsx/HEMCO/CEDS/v2018-08/2014/C2H6-em-anthro_CMIP_CEDS_2014.nc
HEMCO: Opening /fsx/HEMCO/CEDS/v2018-08/2014/C3H8-em-anthro_CMIP_CEDS_2014.nc
HEMCO: Opening /fsx/HEMCO/CEDS/v2018-08/2014/ALK4_butanes-em-anthro_CMIP_CEDS_2014.nc
HEMCO: Opening /fsx/HEMCO/CEDS/v2018-08/2014/ALK4_pentanes-em-anthro_CMIP_CEDS_2014.nc
HEMCO: Opening /fsx/HEMCO/CEDS/v2018-08/2014/ALK4_hexanes-em-anthro_CMIP_CEDS_2014.nc
HEMCO: Opening /fsx/HEMCO/CEDS/v2018-08/2014/PRPE-em-anthro_CMIP_CEDS_2014.nc
HEMCO: Opening /fsx/HEMCO/CEDS/v2018-08/2014/BENZ-em-anthro_CMIP_CEDS_2014.nc
HEMCO: Opening /fsx/HEMCO/CEDS/v2018-08/2014/TOLU-em-anthro_CMIP_CEDS_2014.nc
HEMCO: Opening /fsx/HEMCO/CEDS/v2018-08/2014/XYLE-em-anthro_CMIP_CEDS_2014.nc
HEMCO: Opening /fsx/HEMCO/CEDS/v2018-08/2014/CH2O-em-anthro_CMIP_CEDS_2014.nc
HEMCO: Opening /fsx/HEMCO/CEDS/v2018-08/2014/ALD2-em-anthro_CMIP_CEDS_2014.nc
HEMCO: Opening /fsx/HEMCO/CEDS/v2018-08/2014/MEK-em-anthro_CMIP_CEDS_2014.nc
HEMCO: Opening /fsx/HEMCO/CEDS/v2018-08/2014/HCOOH-em-anthro_CMIP_CEDS_2014.nc
HEMCO: Opening /fsx/HEMCO/CEDS/v2018-08/2014/NO-em-anthro_CMIP_CEDS_2014.nc
HEMCO: Opening /fsx/HEMCO/AEIC/v2015-01/AEIC.47L.gen.1x1.nc
HEMCO: Opening /fsx/HEMCO/ALD2/v2017-03/resp.geos.2x25.nc
HEMCO: Opening /fsx/HEMCO/DMS/v2015-07/DMS_lana.geos.1x1.nc
HEMCO: Opening /fsx/HEMCO/ALD2/v2017-03/ALD2_seawater.geos.2x25.nc
HEMCO: Opening /fsx/HEMCO/DUST_DEAD/v2014-07/dst_tvbds.geos.4x5.nc
HEMCO: Opening /fsx/HEMCO/DUST_DEAD/v2018-04/PM25FINE_ECLIPSE_2015.geos.2x25.nc
HEMCO: Opening /fsx/HEMCO/SOA/v2014-07/NVOC.geos.1x1.nc
HEMCO: Opening /fsx/HEMCO/GFED4/v2015-10/2016/GFED4_gen.025x025.201601.nc
HEMCO: Opening /fsx/HEMCO/UVALBEDO/v2015-03/uvalbedo.geos.2x25.nc
HEMCO: Opening /fsx/HEMCO/GMI/v2015-02/gmi.clim.ACET.geos5.2x25.nc
HEMCO: Opening /fsx/HEMCO/GMI/v2015-02/gmi.clim.ACTA.geos5.2x25.nc
HEMCO: Opening /fsx/HEMCO/GMI/v2015-02/gmi.clim.ALD2.geos5.2x25.nc
HEMCO: Opening /fsx/HEMCO/GMI/v2015-02/gmi.clim.ALK4.geos5.2x25.nc
HEMCO: Opening /fsx/HEMCO/GMI/v2015-02/gmi.clim.C2H6.geos5.2x25.nc
HEMCO: Opening /fsx/HEMCO/GMI/v2015-02/gmi.clim.C3H8.geos5.2x25.nc
HEMCO: Opening /fsx/HEMCO/GMI/v2015-02/gmi.clim.CCl4.geos5.2x25.nc
HEMCO: Opening /fsx/HEMCO/GMI/v2015-02/gmi.clim.CF2Cl2.geos5.2x25.nc
HEMCO: Opening /fsx/HEMCO/GMI/v2015-02/gmi.clim.CF2ClBr.geos5.2x25.nc
HEMCO: Opening /fsx/HEMCO/GMI/v2015-02/gmi.clim.CFC113.geos5.2x25.nc
HEMCO: Opening /fsx/HEMCO/GMI/v2015-02/gmi.clim.CFC114.geos5.2x25.nc
HEMCO: Opening /fsx/HEMCO/GMI/v2015-02/gmi.clim.CFC115.geos5.2x25.nc
HEMCO: Opening /fsx/HEMCO/GMI/v2015-02/gmi.clim.CFCl3.geos5.2x25.nc
HEMCO: Opening /fsx/HEMCO/GMI/v2015-02/gmi.clim.CH2O.geos5.2x25.nc
HEMCO: Opening /fsx/HEMCO/GMI/v2015-02/gmi.clim.CH3CCl3.geos5.2x25.nc
HEMCO: Opening /fsx/HEMCO/GMI/v2015-02/gmi.clim.CH3Cl.geos5.2x25.nc
HEMCO: Opening /fsx/HEMCO/GMI/v2015-02/gmi.clim.CH4.geos5.2x25.nc
HEMCO: Opening /fsx/HEMCO/GMI/v2015-02/gmi.clim.CO.geos5.2x25.nc
HEMCO: Opening /fsx/HEMCO/GMI/v2015-02/gmi.clim.Cl.geos5.2x25.nc
HEMCO: Opening /fsx/HEMCO/GMI/v2015-02/gmi.clim.Cl2.geos5.2x25.nc
HEMCO: Opening /fsx/HEMCO/GMI/v2015-02/gmi.clim.Cl2O2.geos5.2x25.nc
HEMCO: Opening /fsx/HEMCO/GMI/v2015-02/gmi.clim.ClO.geos5.2x25.nc
HEMCO: Opening /fsx/HEMCO/GMI/v2015-02/gmi.clim.EOH.geos5.2x25.nc
HEMCO: Opening /fsx/HEMCO/GMI/v2015-02/gmi.clim.GLYC.geos5.2x25.nc
HEMCO: Opening /fsx/HEMCO/GMI/v2015-02/gmi.clim.GLYX.geos5.2x25.nc
HEMCO: Opening /fsx/HEMCO/GMI/v2015-02/gmi.clim.H2402.geos5.2x25.nc
HEMCO: Opening /fsx/HEMCO/GMI/v2015-02/gmi.clim.H2O.geos5.2x25.nc
HEMCO: Opening /fsx/HEMCO/GMI/v2015-02/gmi.clim.H2O2.geos5.2x25.nc
HEMCO: Opening /fsx/HEMCO/GMI/v2015-02/gmi.clim.HAC.geos5.2x25.nc
HEMCO: Opening /fsx/HEMCO/GMI/v2015-02/gmi.clim.HCFC141b.geos5.2x25.nc
HEMCO: Opening /fsx/HEMCO/GMI/v2015-02/gmi.clim.HCFC142b.geos5.2x25.nc
HEMCO: Opening /fsx/HEMCO/GMI/v2015-02/gmi.clim.HCFC22.geos5.2x25.nc
HEMCO: Opening /fsx/HEMCO/GMI/v2015-02/gmi.clim.HCOOH.geos5.2x25.20170108.nc
HEMCO: Opening /fsx/HEMCO/GMI/v2015-02/gmi.clim.HCl.geos5.2x25.nc
HEMCO: Opening /fsx/HEMCO/GMI/v2015-02/gmi.clim.HNO2.geos5.2x25.nc
HEMCO: Opening /fsx/HEMCO/GMI/v2015-02/gmi.clim.HNO3.geos5.2x25.nc
HEMCO: Opening /fsx/HEMCO/GMI/v2015-02/gmi.clim.HNO4.geos5.2x25.nc
HEMCO: Opening /fsx/HEMCO/GMI/v2015-02/gmi.clim.HOCl.geos5.2x25.nc
HEMCO: Opening /fsx/HEMCO/GMI/v2015-02/gmi.clim.ISN1.geos5.2x25.nc
HEMCO: Opening /fsx/HEMCO/GMI/v2015-02/gmi.clim.ISOP.geos5.2x25.nc
HEMCO: Opening /fsx/HEMCO/GMI/v2015-02/gmi.clim.MACR.geos5.2x25.nc
HEMCO: Opening /fsx/HEMCO/GMI/v2015-02/gmi.clim.MAP.geos5.2x25.nc
HEMCO: Opening /fsx/HEMCO/GMI/v2015-02/gmi.clim.MEK.geos5.2x25.nc
HEMCO: Opening /fsx/HEMCO/GMI/v2015-02/gmi.clim.MGLY.geos5.2x25.nc
HEMCO: Opening /fsx/HEMCO/GMI/v2015-02/gmi.clim.MP.geos5.2x25.nc
HEMCO: Opening /fsx/HEMCO/GMI/v2015-02/gmi.clim.MVK.geos5.2x25.nc
HEMCO: Opening /fsx/HEMCO/GMI/v2015-02/gmi.clim.N2O.geos5.2x25.nc
HEMCO: Opening /fsx/HEMCO/GMI/v2015-02/gmi.clim.N2O5.geos5.2x25.nc
HEMCO: Opening /fsx/HEMCO/GMI/v2015-02/gmi.clim.NO.geos5.2x25.nc
HEMCO: Opening /fsx/HEMCO/GMI/v2015-02/gmi.clim.NO2.geos5.2x25.nc
HEMCO: Opening /fsx/HEMCO/GMI/v2015-02/gmi.clim.NO3.geos5.2x25.nc
HEMCO: Opening /fsx/HEMCO/GMI/v2015-02/gmi.clim.O3.geos5.2x25.nc
HEMCO: Opening /fsx/HEMCO/GMI/v2015-02/gmi.clim.OClO.geos5.2x25.nc
HEMCO: Opening /fsx/HEMCO/GMI/v2015-02/gmi.clim.PAN.geos5.2x25.nc
HEMCO: Opening /fsx/HEMCO/GMI/v2015-02/gmi.clim.NPMN.geos5.2x25.nc
HEMCO: Opening /fsx/HEMCO/GMI/v2015-02/gmi.clim.IPMN.geos5.2x25.nc
HEMCO: Opening /fsx/HEMCO/GMI/v2015-02/gmi.clim.PPN.geos5.2x25.nc
HEMCO: Opening /fsx/HEMCO/GMI/v2015-02/gmi.clim.PRPE.geos5.2x25.nc
HEMCO: Opening /fsx/HEMCO/GMI/v2015-02/gmi.clim.R4N2.geos5.2x25.nc
HEMCO: Opening /fsx/HEMCO/GMI/v2015-02/gmi.clim.RCHO.geos5.2x25.nc
HEMCO: Opening /fsx/HEMCO/GMI/v2015-02/gmi.clim.RIPA.geos5.2x25.nc
HEMCO: Opening /fsx/HEMCO/GMI/v2015-02/gmi.clim.RIPB.geos5.2x25.nc
HEMCO: Opening /fsx/HEMCO/GMI/v2015-02/gmi.clim.RIPD.geos5.2x25.nc
HEMCO: Opening /fsx/HEMCO/GMI/v2015-02/gmi.clim.OH.geos5.2x25.nc
HEMCO: Opening /fsx/HEMCO/NOAA_GMD/v2018-01/monthly.gridded.surface.methane.1979-2020.1x1.nc
HEMCO: Opening /fsx/HEMCO/GEIA/v2014-07/GEIA_monthscal.generic.1x1.nc
HEMCO: Opening /fsx/HEMCO/EMEP/v2015-03/EMEP.Seasonal.geos.1x1.nc
HEMCO: Opening /fsx/HEMCO/BROMINE/v2015-02/BromoCarb_Season.nc
HEMCO: Opening /fsx/HEMCO/EDGARv43/v2016-11/EDGAR_v43.Seasonal.1x1.nc
HEMCO: Opening /fsx/HEMCO/NEI2005/v2014-09/scaling/NEI99.dow.geos.1x1.nc
HEMCO: Opening /fsx/HEMCO/VOLCANO/v2015-02/2009/volc_so2_gen.1x1.47L.200901.nc
HEMCO: Opening /fsx/HEMCO/SOILNOX/v2014-07/soilNOx.fert_res.generic.05x05.nc
 vdinti: pbl height will be limited to bottom           25  model levels. top is
     431.250100000000       hpa
 =================================================
 W R F - G C   T I M E R S
    Domain           1 (Units: s)
 =================================================
  => Coupler Component                       0.057
   -- Physics & Parameterization             0.010
   -- Diagnostics Out                        0.000
  => GEOS-Chem Column                      135.323
  ===> Total Chemistry                     135.379
  => WRF                                    17.392
  ===> Total WRF-GC                        152.772
 max optd  1.9364301E+31
 max taucldi  3.9270867E-09
 max taucldw  9.6213546E-07
 Switching is not necessary as we are already
 in the right domain!
 GIGC_Chunk_Run: Running for in-PET grid #           1
 GIGC_Chunk_Run: Received new grid IM, JM, LM =          15           9
          49
 =================================================
 W R F - G C   T I M E R S
    Domain           1 (Units: s)
 =================================================
  => Coupler Component                       0.093
   -- Physics & Parameterization             0.020
   -- Diagnostics Out                        0.000
  => GEOS-Chem Column                      136.388
  ===> Total Chemistry                     136.481
  => WRF                                    55.635
  ===> Total WRF-GC                        192.116
 max optd  1.9364301E+31
 max taucldi  1.0919554E-08
 max taucldw  1.8774865E-06
 Switching is not necessary as we are already
 in the right domain!
 GIGC_Chunk_Run: Running for in-PET grid #           1
 GIGC_Chunk_Run: Received new grid IM, JM, LM =          15           9
          49
 =================================================
 W R F - G C   T I M E R S
    Domain           1 (Units: s)
 =================================================
  => Coupler Component                       0.131
   -- Physics & Parameterization             0.030
   -- Diagnostics Out                        0.000
  => GEOS-Chem Column                      137.433
  ===> Total Chemistry                     137.564
  => WRF                                    76.434
  ===> Total WRF-GC                        213.998
 max optd  1.9364301E+31
 max taucldi  2.0725539E-08
 max taucldw  2.7603623E-06
 Switching is not necessary as we are already
 in the right domain!
 GIGC_Chunk_Run: Running for in-PET grid #           1
 GIGC_Chunk_Run: Received new grid IM, JM, LM =          15           9
          49
 =================================================
 W R F - G C   T I M E R S
    Domain           1 (Units: s)
 =================================================
  => Coupler Component                       0.177
   -- Physics & Parameterization             0.040
   -- Diagnostics Out                        0.000
  => GEOS-Chem Column                      138.446
  ===> Total Chemistry                     138.623
  => WRF                                    95.465
  ===> Total WRF-GC                        234.088
 max optd  1.9364301E+31
 max taucldi  3.3364110E-08
 max taucldw  3.5861042E-06
 Switching is not necessary as we are already
 in the right domain!
 GIGC_Chunk_Run: Running for in-PET grid #           1
 GIGC_Chunk_Run: Received new grid IM, JM, LM =          15           9
          49
 =================================================
 W R F - G C   T I M E R S
    Domain           1 (Units: s)
 =================================================
  => Coupler Component                       0.225
   -- Physics & Parameterization             0.050
   -- Diagnostics Out                        0.000
  => GEOS-Chem Column                      139.466
  ===> Total Chemistry                     139.690
  => WRF                                   114.065
  ===> Total WRF-GC                        253.756
 max optd  1.9364301E+31
 max taucldi  5.0099707E-08
 max taucldw  4.5047900E-06
 Switching is not necessary as we are already
 in the right domain!
 GIGC_Chunk_Run: Running for in-PET grid #           1
 GIGC_Chunk_Run: Received new grid IM, JM, LM =          15           9
          49
 =================================================
 W R F - G C   T I M E R S
    Domain           1 (Units: s)
 =================================================
  => Coupler Component                       0.268
   -- Physics & Parameterization             0.060
   -- Diagnostics Out                        0.000
  => GEOS-Chem Column                      140.492
  ===> Total Chemistry                     140.760
  => WRF                                   132.553
  ===> Total WRF-GC                        273.313
 max optd  1.9364301E+31
 max taucldi  6.9475199E-08
 max taucldw  5.4109273E-06
 Switching is not necessary as we are already
 in the right domain!
 GIGC_Chunk_Run: Running for in-PET grid #           1
 GIGC_Chunk_Run: Received new grid IM, JM, LM =          15           9
          49
 =================================================
 W R F - G C   T I M E R S
    Domain           1 (Units: s)
 =================================================
  => Coupler Component                       0.316
   -- Physics & Parameterization             0.069
   -- Diagnostics Out                        0.000
  => GEOS-Chem Column                      141.513
  ===> Total Chemistry                     141.829
  => WRF                                   151.005
  ===> Total WRF-GC                        292.833
 max optd  1.9364301E+31
 max taucldi  9.2958224E-08
 max taucldw  6.3314483E-06
 Switching is not necessary as we are already
 in the right domain!
 GIGC_Chunk_Run: Running for in-PET grid #           1
 GIGC_Chunk_Run: Received new grid IM, JM, LM =          15           9
          49
 =================================================
 W R F - G C   T I M E R S
    Domain           1 (Units: s)
 =================================================
  => Coupler Component                       0.351
   -- Physics & Parameterization             0.079
   -- Diagnostics Out                        0.000
  => GEOS-Chem Column                      142.550
  ===> Total Chemistry                     142.901
  => WRF                                   169.416
  ===> Total WRF-GC                        312.317
 max optd  1.9364301E+31
 max taucldi  1.2066111E-07
 max taucldw  7.3322849E-06
 Switching is not necessary as we are already
 in the right domain!
 GIGC_Chunk_Run: Running for in-PET grid #           1
 GIGC_Chunk_Run: Received new grid IM, JM, LM =          15           9
          49
 =================================================
 W R F - G C   T I M E R S
    Domain           1 (Units: s)
 =================================================
  => Coupler Component                       0.395
   -- Physics & Parameterization             0.088
   -- Diagnostics Out                        0.000
  => GEOS-Chem Column                      143.561
  ===> Total Chemistry                     143.957
  => WRF                                   187.802
  ===> Total WRF-GC                        331.759
 max optd  1.9364301E+31
 max taucldi  1.5074133E-07
 max taucldw  8.2992519E-06
 Switching is not necessary as we are already
 in the right domain!
 GIGC_Chunk_Run: Running for in-PET grid #           1
 GIGC_Chunk_Run: Received new grid IM, JM, LM =          15           9
          49
 =================================================
 W R F - G C   T I M E R S
    Domain           1 (Units: s)
 =================================================
  => Coupler Component                       0.444
   -- Physics & Parameterization             0.098
   -- Diagnostics Out                        0.000
  => GEOS-Chem Column                      144.580
  ===> Total Chemistry                     145.024
  => WRF                                   206.268
  ===> Total WRF-GC                        351.292
 max optd  1.9364301E+31
 max taucldi  1.8151253E-07
 max taucldw  9.1797647E-06
 Switching is not necessary as we are already
 in the right domain!
 GIGC_Chunk_Run: Running for in-PET grid #           1
 GIGC_Chunk_Run: Received new grid IM, JM, LM =          15           9
          49
 =================================================
 W R F - G C   T I M E R S
    Domain           1 (Units: s)
 =================================================
  => Coupler Component                       0.481
   -- Physics & Parameterization             0.107
   -- Diagnostics Out                        0.000
  => GEOS-Chem Column                      145.616
  ===> Total Chemistry                     146.096
  => WRF                                   224.661
  ===> Total WRF-GC                        370.757
 max optd  1.9364301E+31
 max taucldi  2.1136945E-07
 max taucldw  9.9435711E-06
 Switching is not necessary as we are already
 in the right domain!
 GIGC_Chunk_Run: Running for in-PET grid #           1
 GIGC_Chunk_Run: Received new grid IM, JM, LM =          15           9
          49
 =================================================
 W R F - G C   T I M E R S
    Domain           1 (Units: s)
 =================================================
  => Coupler Component                       0.516
   -- Physics & Parameterization             0.117
   -- Diagnostics Out                        0.000
  => GEOS-Chem Column                      146.650
  ===> Total Chemistry                     147.166
  => WRF                                   242.922
  ===> Total WRF-GC                        390.089
 HOURLY EMISSIONS UPDATE TIME     3600.0       0.0
mediation_integrate: med_read_wrf_chem_emissions: Read emissions for time 2018-01-01_01:00:00
 max optd  1.9364301E+31
 max taucldi  2.4392469E-07
 max taucldw  1.0581088E-05
 Switching is not necessary as we are already
 in the right domain!
 GIGC_Chunk_Run: Running for in-PET grid #           1
 GIGC_Chunk_Run: Received new grid IM, JM, LM =          15           9
          49
 =================================================
 W R F - G C   T I M E R S
    Domain           1 (Units: s)
 =================================================
  => Coupler Component                       0.547
   -- Physics & Parameterization             0.127
   -- Diagnostics Out                        0.000
  => GEOS-Chem Column                      147.661
  ===> Total Chemistry                     148.207
  => WRF                                   261.296
  ===> Total WRF-GC                        409.503
 max optd  1.9364301E+31
 max taucldi  2.8377028E-07
 max taucldw  1.1362794E-05
 Switching is not necessary as we are already
 in the right domain!
 GIGC_Chunk_Run: Running for in-PET grid #           1
 GIGC_Chunk_Run: Received new grid IM, JM, LM =          15           9
          49
 =================================================
 W R F - G C   T I M E R S
    Domain           1 (Units: s)
 =================================================
  => Coupler Component                       0.595
   -- Physics & Parameterization             0.137
   -- Diagnostics Out                        0.000
  => GEOS-Chem Column                      148.681
  ===> Total Chemistry                     149.275
  => WRF                                   279.596
  ===> Total WRF-GC                        428.872
 max optd  1.9364301E+31
 max taucldi  3.2345676E-07
 max taucldw  1.2192579E-05
 Switching is not necessary as we are already
 in the right domain!
 GIGC_Chunk_Run: Running for in-PET grid #           1
 GIGC_Chunk_Run: Received new grid IM, JM, LM =          15           9
          49
 =================================================
 W R F - G C   T I M E R S
    Domain           1 (Units: s)
 =================================================
  => Coupler Component                       0.640
   -- Physics & Parameterization             0.146
   -- Diagnostics Out                        0.000
  => GEOS-Chem Column                      149.691
  ===> Total Chemistry                     150.331
  => WRF                                   297.819
  ===> Total WRF-GC                        448.150
 max optd  1.9364301E+31
 max taucldi  3.6339176E-07
 max taucldw  1.2959510E-05
 Switching is not necessary as we are already
 in the right domain!
 GIGC_Chunk_Run: Running for in-PET grid #           1
 GIGC_Chunk_Run: Received new grid IM, JM, LM =          15           9
          49
 =================================================
 W R F - G C   T I M E R S
    Domain           1 (Units: s)
 =================================================
  => Coupler Component                       0.679
   -- Physics & Parameterization             0.156
   -- Diagnostics Out                        0.000
  => GEOS-Chem Column                      150.707
  ===> Total Chemistry                     151.386
  => WRF                                   316.111
  ===> Total WRF-GC                        467.497
 max optd  1.9364301E+31
 max taucldi  4.1428621E-07
 max taucldw  1.3906578E-05
 Switching is not necessary as we are already
 in the right domain!
 GIGC_Chunk_Run: Running for in-PET grid #           1
 GIGC_Chunk_Run: Received new grid IM, JM, LM =          15           9
          49
 =================================================
 W R F - G C   T I M E R S
    Domain           1 (Units: s)
 =================================================
  => Coupler Component                       0.718
   -- Physics & Parameterization             0.166
   -- Diagnostics Out                        0.000
  => GEOS-Chem Column                      151.727
  ===> Total Chemistry                     152.445
  => WRF                                   334.369
  ===> Total WRF-GC                        486.814
 max optd  1.9364301E+31
 max taucldi  4.7015413E-07
 max taucldw  1.4895652E-05
 Switching is not necessary as we are already
 in the right domain!
 GIGC_Chunk_Run: Running for in-PET grid #           1
 GIGC_Chunk_Run: Received new grid IM, JM, LM =          15           9
          49
 =================================================
 W R F - G C   T I M E R S
    Domain           1 (Units: s)
 =================================================
  => Coupler Component                       0.762
   -- Physics & Parameterization             0.176
   -- Diagnostics Out                        0.000
  => GEOS-Chem Column                      152.736
  ===> Total Chemistry                     153.498
  => WRF                                   352.618
  ===> Total WRF-GC                        506.116
 max optd  1.9364301E+31
 max taucldi  5.3055021E-07
 max taucldw  1.5906044E-05
 Switching is not necessary as we are already
 in the right domain!
 GIGC_Chunk_Run: Running for in-PET grid #           1
 GIGC_Chunk_Run: Received new grid IM, JM, LM =          15           9
          49
 =================================================
 W R F - G C   T I M E R S
    Domain           1 (Units: s)
 =================================================
  => Coupler Component                       0.807
   -- Physics & Parameterization             0.186
   -- Diagnostics Out                        0.000
  => GEOS-Chem Column                      153.748
  ===> Total Chemistry                     154.555
  => WRF                                   370.905
  ===> Total WRF-GC                        525.460
 max optd  1.9364301E+31
 max taucldi  5.9474030E-07
 max taucldw  1.6918728E-05
 Switching is not necessary as we are already
 in the right domain!
 GIGC_Chunk_Run: Running for in-PET grid #           1
 GIGC_Chunk_Run: Received new grid IM, JM, LM =          15           9
          49
 =================================================
 W R F - G C   T I M E R S
    Domain           1 (Units: s)
 =================================================
  => Coupler Component                       0.851
   -- Physics & Parameterization             0.196
   -- Diagnostics Out                        0.000
  => GEOS-Chem Column                      154.756
  ===> Total Chemistry                     155.607
  => WRF                                   389.287
  ===> Total WRF-GC                        544.895
 max optd  1.9364301E+31
 max taucldi  6.6183458E-07
 max taucldw  1.7918304E-05
 Switching is not necessary as we are already
 in the right domain!
 GIGC_Chunk_Run: Running for in-PET grid #           1
 GIGC_Chunk_Run: Received new grid IM, JM, LM =          15           9
          49
 =================================================
 W R F - G C   T I M E R S
    Domain           1 (Units: s)
 =================================================
  => Coupler Component                       0.884
   -- Physics & Parameterization             0.205
   -- Diagnostics Out                        0.000
  => GEOS-Chem Column                      155.767
  ===> Total Chemistry                     156.651
  => WRF                                   407.422
  ===> Total WRF-GC                        564.072
 max optd  1.9364301E+31
 max taucldi  7.3007618E-07
 max taucldw  1.8864144E-05
 Switching is not necessary as we are already
 in the right domain!
 GIGC_Chunk_Run: Running for in-PET grid #           1
 GIGC_Chunk_Run: Received new grid IM, JM, LM =          15           9
          49
 =================================================
 W R F - G C   T I M E R S
    Domain           1 (Units: s)
 =================================================
  => Coupler Component                       0.925
   -- Physics & Parameterization             0.215
   -- Diagnostics Out                        0.000
  => GEOS-Chem Column                      156.805
  ===> Total Chemistry                     157.730
  => WRF                                   425.661
  ===> Total WRF-GC                        583.391
 max optd  1.9364301E+31
 max taucldi  7.9799690E-07
 max taucldw  1.9732201E-05
 Switching is not necessary as we are already
 in the right domain!
 GIGC_Chunk_Run: Running for in-PET grid #           1
 GIGC_Chunk_Run: Received new grid IM, JM, LM =          15           9
          49
 =================================================
 W R F - G C   T I M E R S
    Domain           1 (Units: s)
 =================================================
  => Coupler Component                       0.959
   -- Physics & Parameterization             0.225
   -- Diagnostics Out                        0.000
  => GEOS-Chem Column                      157.825
  ===> Total Chemistry                     158.784
  => WRF                                   443.934
  ===> Total WRF-GC                        602.717
 max optd  1.9364301E+31
 max taucldi  8.7619713E-07
 max taucldw  2.0520934E-05
 Switching is not necessary as we are already
 in the right domain!
 GIGC_Chunk_Run: Running for in-PET grid #           1
 GIGC_Chunk_Run: Received new grid IM, JM, LM =          15           9
          49
 =================================================
 W R F - G C   T I M E R S
    Domain           1 (Units: s)
 =================================================
  => Coupler Component                       1.000
   -- Physics & Parameterization             0.235
   -- Diagnostics Out                        0.000
  => GEOS-Chem Column                      158.846
  ===> Total Chemistry                     159.847
  => WRF                                   462.154
  ===> Total WRF-GC                        622.000
 HOURLY EMISSIONS UPDATE TIME     7200.0       0.0
mediation_integrate: med_read_wrf_chem_emissions: Read emissions for time 2018-01-01_02:00:00
 max optd  1.9364301E+31
 max taucldi  9.6144595E-07
 max taucldw  2.1219757E-05
 Switching is not necessary as we are already
 in the right domain!
 GIGC_Chunk_Run: Running for in-PET grid #           1
 GIGC_Chunk_Run: Received new grid IM, JM, LM =          15           9
          49
 =================================================
 W R F - G C   T I M E R S
    Domain           1 (Units: s)
 =================================================
  => Coupler Component                       1.045
   -- Physics & Parameterization             0.245
   -- Diagnostics Out                        0.000
  => GEOS-Chem Column                      159.860
  ===> Total Chemistry                     160.905
  => WRF                                   480.402
  ===> Total WRF-GC                        641.306
 max optd  1.9364301E+31
 max taucldi  1.0475729E-06
 max taucldw  2.2224747E-05
 Switching is not necessary as we are already
 in the right domain!
 GIGC_Chunk_Run: Running for in-PET grid #           1
 GIGC_Chunk_Run: Received new grid IM, JM, LM =          15           9
          49
 =================================================
 W R F - G C   T I M E R S
    Domain           1 (Units: s)
 =================================================
  => Coupler Component                       1.083
   -- Physics & Parameterization             0.255
   -- Diagnostics Out                        0.000
  => GEOS-Chem Column                      160.876
  ===> Total Chemistry                     161.959
  => WRF                                   498.648
  ===> Total WRF-GC                        660.607
 max optd  1.9364301E+31
 max taucldi  1.1332889E-06
 max taucldw  2.3212033E-05
 Switching is not necessary as we are already
 in the right domain!
 GIGC_Chunk_Run: Running for in-PET grid #           1
 GIGC_Chunk_Run: Received new grid IM, JM, LM =          15           9
          49
 =================================================
 W R F - G C   T I M E R S
    Domain           1 (Units: s)
 =================================================
  => Coupler Component                       1.117
   -- Physics & Parameterization             0.264
   -- Diagnostics Out                        0.000
  => GEOS-Chem Column                      161.928
  ===> Total Chemistry                     163.044
  => WRF                                   516.832
  ===> Total WRF-GC                        679.876
 max optd  1.9364301E+31
 max taucldi  1.2168939E-06
 max taucldw  2.4112182E-05
 Switching is not necessary as we are already
 in the right domain!
 GIGC_Chunk_Run: Running for in-PET grid #           1
 GIGC_Chunk_Run: Received new grid IM, JM, LM =          15           9
          49
 =================================================
 W R F - G C   T I M E R S
    Domain           1 (Units: s)
 =================================================
  => Coupler Component                       1.152
   -- Physics & Parameterization             0.274
   -- Diagnostics Out                        0.000
  => GEOS-Chem Column                      162.970
  ===> Total Chemistry                     164.122
  => WRF                                   534.935
  ===> Total WRF-GC                        699.057
 max optd  1.9364301E+31
 max taucldi  1.2978503E-06
 max taucldw  2.4927826E-05
 Switching is not necessary as we are already
 in the right domain!
 GIGC_Chunk_Run: Running for in-PET grid #           1
 GIGC_Chunk_Run: Received new grid IM, JM, LM =          15           9
          49
 =================================================
 W R F - G C   T I M E R S
    Domain           1 (Units: s)
 =================================================
  => Coupler Component                       1.191
   -- Physics & Parameterization             0.284
   -- Diagnostics Out                        0.000
  => GEOS-Chem Column                      163.997
  ===> Total Chemistry                     165.188
  => WRF                                   553.083
  ===> Total WRF-GC                        718.272
 max optd  1.9364301E+31
 max taucldi  1.3756953E-06
 max taucldw  2.5661560E-05
 Switching is not necessary as we are already
 in the right domain!
 GIGC_Chunk_Run: Running for in-PET grid #           1
 GIGC_Chunk_Run: Received new grid IM, JM, LM =          15           9
          49
 =================================================
 W R F - G C   T I M E R S
    Domain           1 (Units: s)
 =================================================
  => Coupler Component                       1.234
   -- Physics & Parameterization             0.294
   -- Diagnostics Out                        0.000
  => GEOS-Chem Column                      165.025
  ===> Total Chemistry                     166.259
  => WRF                                   571.241
  ===> Total WRF-GC                        737.501
 max optd  1.9364301E+31
 max taucldi  1.4507960E-06
 max taucldw  2.6320922E-05
 Switching is not necessary as we are already
 in the right domain!
 GIGC_Chunk_Run: Running for in-PET grid #           1
 GIGC_Chunk_Run: Received new grid IM, JM, LM =          15           9
          49
 =================================================
 W R F - G C   T I M E R S
    Domain           1 (Units: s)
 =================================================
  => Coupler Component                       1.279
   -- Physics & Parameterization             0.304
   -- Diagnostics Out                        0.000
  => GEOS-Chem Column                      166.038
  ===> Total Chemistry                     167.317
  => WRF                                   589.397
  ===> Total WRF-GC                        756.714
 max optd  1.9364301E+31
 max taucldi  1.5236870E-06
 max taucldw  2.6921161E-05
 Switching is not necessary as we are already
 in the right domain!
 GIGC_Chunk_Run: Running for in-PET grid #           1
 GIGC_Chunk_Run: Received new grid IM, JM, LM =          15           9
          49
 =================================================
 W R F - G C   T I M E R S
    Domain           1 (Units: s)
 =================================================
  => Coupler Component                       1.324
   -- Physics & Parameterization             0.314
   -- Diagnostics Out                        0.000
  => GEOS-Chem Column                      167.049
  ===> Total Chemistry                     168.373
  => WRF                                   607.507
  ===> Total WRF-GC                        775.880
 max optd  1.9364301E+31
 max taucldi  1.6154219E-06
 max taucldw  2.7469414E-05
 Switching is not necessary as we are already
 in the right domain!
 GIGC_Chunk_Run: Running for in-PET grid #           1
 GIGC_Chunk_Run: Received new grid IM, JM, LM =          15           9
          49
 =================================================
 W R F - G C   T I M E R S
    Domain           1 (Units: s)
 =================================================
  => Coupler Component                       1.360
   -- Physics & Parameterization             0.323
   -- Diagnostics Out                        0.000
  => GEOS-Chem Column                      168.086
  ===> Total Chemistry                     169.446
  => WRF                                   625.660
  ===> Total WRF-GC                        795.105
 max optd  1.9364301E+31
 max taucldi  1.7089532E-06
 max taucldw  2.7958011E-05
 Switching is not necessary as we are already
 in the right domain!
 GIGC_Chunk_Run: Running for in-PET grid #           1
 GIGC_Chunk_Run: Received new grid IM, JM, LM =          15           9
          49
 =================================================
 W R F - G C   T I M E R S
    Domain           1 (Units: s)
 =================================================
  => Coupler Component                       1.400
   -- Physics & Parameterization             0.334
   -- Diagnostics Out                        0.000
  => GEOS-Chem Column                      169.093
  ===> Total Chemistry                     170.493
  => WRF                                   643.818
  ===> Total WRF-GC                        814.311
 max optd  1.9364301E+31
 max taucldi  1.7991562E-06
 max taucldw  2.8369806E-05
 Switching is not necessary as we are already
 in the right domain!
 GIGC_Chunk_Run: Running for in-PET grid #           1
 GIGC_Chunk_Run: Received new grid IM, JM, LM =          15           9
          49
 =================================================
 W R F - G C   T I M E R S
    Domain           1 (Units: s)
 =================================================
  => Coupler Component                       1.443
   -- Physics & Parameterization             0.343
   -- Diagnostics Out                        0.000
  => GEOS-Chem Column                      170.101
  ===> Total Chemistry                     171.544
  => WRF                                   661.913
  ===> Total WRF-GC                        833.457
 max optd  1.9364301E+31
 max taucldi  1.8855261E-06
 max taucldw  2.8716897E-05
 Switching is not necessary as we are already
 in the right domain!
 GIGC_Chunk_Run: Running for in-PET grid #           1
 GIGC_Chunk_Run: Received new grid IM, JM, LM =          15           9
          49
 =================================================
 W R F - G C   T I M E R S
    Domain           1 (Units: s)
 =================================================
  => Coupler Component                       1.479
   -- Physics & Parameterization             0.353
   -- Diagnostics Out                        0.000
  => GEOS-Chem Column                      171.130
  ===> Total Chemistry                     172.608
  => WRF                                   680.041
  ===> Total WRF-GC                        852.649
 HOURLY EMISSIONS UPDATE TIME    10800.0       0.0
mediation_integrate: med_read_wrf_chem_emissions: Read emissions for time 2018-01-01_03:00:00
 max optd  1.9364301E+31
 max taucldi  1.9679796E-06
 max taucldw  2.9292143E-05
 Switching is not necessary as we are already
 in the right domain!
 GIGC_Chunk_Run: Running for in-PET grid #           1
 GIGC_Chunk_Run: Received new grid IM, JM, LM =          15           9
          49
 =================================================
 W R F - G C   T I M E R S
    Domain           1 (Units: s)
 =================================================
  => Coupler Component                       1.521
   -- Physics & Parameterization             0.363
   -- Diagnostics Out                        0.000
  => GEOS-Chem Column                      172.141
  ===> Total Chemistry                     173.662
  => WRF                                   698.189
  ===> Total WRF-GC                        871.851
 max optd  1.9364301E+31
 max taucldi  2.0456728E-06
 max taucldw  2.9817948E-05
 Switching is not necessary as we are already
 in the right domain!
 GIGC_Chunk_Run: Running for in-PET grid #           1
 GIGC_Chunk_Run: Received new grid IM, JM, LM =          15           9
          49
 =================================================
 W R F - G C   T I M E R S
    Domain           1 (Units: s)
 =================================================
  => Coupler Component                       1.563
   -- Physics & Parameterization             0.372
   -- Diagnostics Out                        0.000
  => GEOS-Chem Column                      173.154
  ===> Total Chemistry                     174.717
  => WRF                                   716.313
  ===> Total WRF-GC                        891.030
 max optd  1.9364301E+31
 max taucldi  2.1174214E-06
 max taucldw  3.0256801E-05
 Switching is not necessary as we are already
 in the right domain!
 GIGC_Chunk_Run: Running for in-PET grid #           1
 GIGC_Chunk_Run: Received new grid IM, JM, LM =          15           9
          49
 =================================================
 W R F - G C   T I M E R S
    Domain           1 (Units: s)
 =================================================
  => Coupler Component                       1.610
   -- Physics & Parameterization             0.382
   -- Diagnostics Out                        0.000
  => GEOS-Chem Column                      174.170
  ===> Total Chemistry                     175.780
  => WRF                                   734.445
  ===> Total WRF-GC                        910.225
 max optd  1.9364301E+31
 max taucldi  2.1821634E-06
 max taucldw  3.0592219E-05
 Switching is not necessary as we are already
 in the right domain!
 GIGC_Chunk_Run: Running for in-PET grid #           1
 GIGC_Chunk_Run: Received new grid IM, JM, LM =          15           9
          49
 =================================================
 W R F - G C   T I M E R S
    Domain           1 (Units: s)
 =================================================
  => Coupler Component                       1.651
   -- Physics & Parameterization             0.392
   -- Diagnostics Out                        0.000
  => GEOS-Chem Column                      175.174
  ===> Total Chemistry                     176.824
  => WRF                                   752.573
  ===> Total WRF-GC                        929.397
 max optd  1.9364301E+31
 max taucldi  2.2628574E-06
 max taucldw  3.0830353E-05
 Switching is not necessary as we are already
 in the right domain!
 GIGC_Chunk_Run: Running for in-PET grid #           1
 GIGC_Chunk_Run: Received new grid IM, JM, LM =          15           9
          49
 =================================================
 W R F - G C   T I M E R S
    Domain           1 (Units: s)
 =================================================
  => Coupler Component                       1.690
   -- Physics & Parameterization             0.402
   -- Diagnostics Out                        0.000
  => GEOS-Chem Column                      176.206
  ===> Total Chemistry                     177.896
  => WRF                                   770.692
  ===> Total WRF-GC                        948.588
 max optd  1.9364301E+31
 max taucldi  2.3563680E-06
 max taucldw  3.0979154E-05
 Switching is not necessary as we are already
 in the right domain!
 GIGC_Chunk_Run: Running for in-PET grid #           1
 GIGC_Chunk_Run: Received new grid IM, JM, LM =          15           9
          49
 =================================================
 W R F - G C   T I M E R S
    Domain           1 (Units: s)
 =================================================
  => Coupler Component                       1.731
   -- Physics & Parameterization             0.412
   -- Diagnostics Out                        0.000
  => GEOS-Chem Column                      177.225
  ===> Total Chemistry                     178.956
  => WRF                                   789.056
  ===> Total WRF-GC                        968.012
 max optd  1.9364301E+31
 max taucldi  2.4825179E-06
 max taucldw  3.1049796E-05
 Switching is not necessary as we are already
 in the right domain!
 GIGC_Chunk_Run: Running for in-PET grid #           1
 GIGC_Chunk_Run: Received new grid IM, JM, LM =          15           9
          49
 =================================================
 W R F - G C   T I M E R S
    Domain           1 (Units: s)
 =================================================
  => Coupler Component                       1.768
   -- Physics & Parameterization             0.422
   -- Diagnostics Out                        0.000
  => GEOS-Chem Column                      178.257
  ===> Total Chemistry                     180.025
  => WRF                                   807.260
  ===> Total WRF-GC                        987.285
 max optd  1.9364301E+31
 max taucldi  2.6017112E-06
 max taucldw  3.1097577E-05
 Switching is not necessary as we are already
 in the right domain!
 GIGC_Chunk_Run: Running for in-PET grid #           1
 GIGC_Chunk_Run: Received new grid IM, JM, LM =          15           9
          49
 =================================================
 W R F - G C   T I M E R S
    Domain           1 (Units: s)
 =================================================
  => Coupler Component                       1.805
   -- Physics & Parameterization             0.431
   -- Diagnostics Out                        0.000
  => GEOS-Chem Column                      179.301
  ===> Total Chemistry                     181.106
  => WRF                                   825.306
  ===> Total WRF-GC                       1006.412
 max optd  1.9364301E+31
 max taucldi  2.7124097E-06
 max taucldw  3.1819756E-05
 Switching is not necessary as we are already
 in the right domain!
 GIGC_Chunk_Run: Running for in-PET grid #           1
 GIGC_Chunk_Run: Received new grid IM, JM, LM =          15           9
          49
 =================================================
 W R F - G C   T I M E R S
    Domain           1 (Units: s)
 =================================================
  => Coupler Component                       1.848
   -- Physics & Parameterization             0.441
   -- Diagnostics Out                        0.000
  => GEOS-Chem Column                      180.312
  ===> Total Chemistry                     182.160
  => WRF                                   843.531
  ===> Total WRF-GC                       1025.691
 max optd  1.9364301E+31
 max taucldi  2.8146080E-06
 max taucldw  3.2459931E-05
 Switching is not necessary as we are already
 in the right domain!
 GIGC_Chunk_Run: Running for in-PET grid #           1
 GIGC_Chunk_Run: Received new grid IM, JM, LM =          15           9
          49
 =================================================
 W R F - G C   T I M E R S
    Domain           1 (Units: s)
 =================================================
  => Coupler Component                       1.893
   -- Physics & Parameterization             0.451
   -- Diagnostics Out                        0.000
  => GEOS-Chem Column                      181.330
  ===> Total Chemistry                     183.223
  => WRF                                   861.716
  ===> Total WRF-GC                       1044.938
 max optd  1.9364301E+31
 max taucldi  2.9403373E-06
 max taucldw  3.2997657E-05
 Switching is not necessary as we are already
 in the right domain!
 GIGC_Chunk_Run: Running for in-PET grid #           1
 GIGC_Chunk_Run: Received new grid IM, JM, LM =          15           9
          49
 =================================================
 W R F - G C   T I M E R S
    Domain           1 (Units: s)
 =================================================
  => Coupler Component                       1.937
   -- Physics & Parameterization             0.461
   -- Diagnostics Out                        0.000
  => GEOS-Chem Column                      182.360
  ===> Total Chemistry                     184.297
  => WRF                                   879.836
  ===> Total WRF-GC                       1064.133
 max optd  1.9364301E+31
 max taucldi  3.0499637E-06
 max taucldw  3.3527427E-05
 Switching is not necessary as we are already
 in the right domain!
 GIGC_Chunk_Run: Running for in-PET grid #           1
 GIGC_Chunk_Run: Received new grid IM, JM, LM =          15           9
          49
 =================================================
 W R F - G C   T I M E R S
    Domain           1 (Units: s)
 =================================================
  => Coupler Component                       1.969
   -- Physics & Parameterization             0.471
   -- Diagnostics Out                        0.000
  => GEOS-Chem Column                      183.387
  ===> Total Chemistry                     185.355
  => WRF                                   897.975
  ===> Total WRF-GC                       1083.331
 HOURLY EMISSIONS UPDATE TIME    14400.0       0.0
mediation_integrate: med_read_wrf_chem_emissions: Read emissions for time 2018-01-01_04:00:00
 max optd  1.9364301E+31
 max taucldi  3.1405307E-06
 max taucldw  3.4006782E-05
 Switching is not necessary as we are already
 in the right domain!
 GIGC_Chunk_Run: Running for in-PET grid #           1
 GIGC_Chunk_Run: Received new grid IM, JM, LM =          15           9
          49
 =================================================
 W R F - G C   T I M E R S
    Domain           1 (Units: s)
 =================================================
  => Coupler Component                       2.010
   -- Physics & Parameterization             0.481
   -- Diagnostics Out                        0.000
  => GEOS-Chem Column                      184.409
  ===> Total Chemistry                     186.419
  => WRF                                   916.167
  ===> Total WRF-GC                       1102.586
 max optd  1.9364301E+31
 max taucldi  3.2138178E-06
 max taucldw  3.4328044E-05
 Switching is not necessary as we are already
 in the right domain!
 GIGC_Chunk_Run: Running for in-PET grid #           1
 GIGC_Chunk_Run: Received new grid IM, JM, LM =          15           9
          49
 =================================================
 W R F - G C   T I M E R S
    Domain           1 (Units: s)
 =================================================
  => Coupler Component                       2.052
   -- Physics & Parameterization             0.490
   -- Diagnostics Out                        0.000
  => GEOS-Chem Column                      185.425
  ===> Total Chemistry                     187.476
  => WRF                                   934.327
  ===> Total WRF-GC                       1121.804
 max optd  1.9364301E+31
 max taucldi  3.2658329E-06
 max taucldw  3.4447887E-05
 Switching is not necessary as we are already
 in the right domain!
 GIGC_Chunk_Run: Running for in-PET grid #           1
 GIGC_Chunk_Run: Received new grid IM, JM, LM =          15           9
          49
 =================================================
 W R F - G C   T I M E R S
    Domain           1 (Units: s)
 =================================================
  => Coupler Component                       2.096
   -- Physics & Parameterization             0.500
   -- Diagnostics Out                        0.000
  => GEOS-Chem Column                      186.440
  ===> Total Chemistry                     188.536
  => WRF                                   952.583
  ===> Total WRF-GC                       1141.118
 max optd  1.9364301E+31
 max taucldi  3.3006081E-06
 max taucldw  3.4368397E-05
 Switching is not necessary as we are already
 in the right domain!
 GIGC_Chunk_Run: Running for in-PET grid #           1
 GIGC_Chunk_Run: Received new grid IM, JM, LM =          15           9
          49
 =================================================
 W R F - G C   T I M E R S
    Domain           1 (Units: s)
 =================================================
  => Coupler Component                       2.144
   -- Physics & Parameterization             0.510
   -- Diagnostics Out                        0.000
  => GEOS-Chem Column                      187.456
  ===> Total Chemistry                     189.600
  => WRF                                   970.722
  ===> Total WRF-GC                       1160.322
 max optd  1.9364301E+31
 max taucldi  3.3435178E-06
 max taucldw  3.4132518E-05
 Switching is not necessary as we are already
 in the right domain!
 GIGC_Chunk_Run: Running for in-PET grid #           1
 GIGC_Chunk_Run: Received new grid IM, JM, LM =          15           9
          49
 =================================================
 W R F - G C   T I M E R S
    Domain           1 (Units: s)
 =================================================
  => Coupler Component                       2.182
   -- Physics & Parameterization             0.520
   -- Diagnostics Out                        0.000
  => GEOS-Chem Column                      188.495
  ===> Total Chemistry                     190.678
  => WRF                                   988.915
  ===> Total WRF-GC                       1179.593
 max optd  1.9364301E+31
 max taucldi  3.3624415E-06
 max taucldw  3.3798588E-05
 Switching is not necessary as we are already
 in the right domain!
 GIGC_Chunk_Run: Running for in-PET grid #           1
 GIGC_Chunk_Run: Received new grid IM, JM, LM =          15           9
          49
 =================================================
 W R F - G C   T I M E R S
    Domain           1 (Units: s)
 =================================================
  => Coupler Component                       2.224
   -- Physics & Parameterization             0.531
   -- Diagnostics Out                        0.000
  => GEOS-Chem Column                      189.506
  ===> Total Chemistry                     191.730
  => WRF                                  1007.068
  ===> Total WRF-GC                       1198.798
 max optd  1.9364301E+31
 max taucldi  3.3637411E-06
 max taucldw  3.3438992E-05
 Switching is not necessary as we are already
 in the right domain!
 GIGC_Chunk_Run: Running for in-PET grid #           1
 GIGC_Chunk_Run: Received new grid IM, JM, LM =          15           9
          49
 =================================================
 W R F - G C   T I M E R S
    Domain           1 (Units: s)
 =================================================
  => Coupler Component                       2.271
   -- Physics & Parameterization             0.541
   -- Diagnostics Out                        0.000
  => GEOS-Chem Column                      190.524
  ===> Total Chemistry                     192.795
  => WRF                                  1025.289
  ===> Total WRF-GC                       1218.084
 max optd  1.9364301E+31
 max taucldi  3.3528561E-06
 max taucldw  3.3226061E-05
 Switching is not necessary as we are already
 in the right domain!
 GIGC_Chunk_Run: Running for in-PET grid #           1
 GIGC_Chunk_Run: Received new grid IM, JM, LM =          15           9
          49
 =================================================
 W R F - G C   T I M E R S
    Domain           1 (Units: s)
 =================================================
  => Coupler Component                       2.312
   -- Physics & Parameterization             0.551
   -- Diagnostics Out                        0.000
  => GEOS-Chem Column                      191.541
  ===> Total Chemistry                     193.853
  => WRF                                  1043.430
  ===> Total WRF-GC                       1237.283
 max optd  1.9364301E+31
 max taucldi  3.4659124E-06
 max taucldw  3.3413642E-05
 Switching is not necessary as we are already
 in the right domain!
 GIGC_Chunk_Run: Running for in-PET grid #           1
 GIGC_Chunk_Run: Received new grid IM, JM, LM =          15           9
          49
 =================================================
 W R F - G C   T I M E R S
    Domain           1 (Units: s)
 =================================================
  => Coupler Component                       2.355
   -- Physics & Parameterization             0.561
   -- Diagnostics Out                        0.000
  => GEOS-Chem Column                      192.568
  ===> Total Chemistry                     194.923
  => WRF                                  1061.605
  ===> Total WRF-GC                       1256.528
 max optd  1.9364301E+31
 max taucldi  3.5992136E-06
 max taucldw  3.4488909E-05
 Switching is not necessary as we are already
 in the right domain!
 GIGC_Chunk_Run: Running for in-PET grid #           1
 GIGC_Chunk_Run: Received new grid IM, JM, LM =          15           9
          49
 =================================================
 W R F - G C   T I M E R S
    Domain           1 (Units: s)
 =================================================
  => Coupler Component                       2.398
   -- Physics & Parameterization             0.571
   -- Diagnostics Out                        0.000
  => GEOS-Chem Column                      193.590
  ===> Total Chemistry                     195.987
  => WRF                                  1079.746
  ===> Total WRF-GC                       1275.734
 max optd  1.9364301E+31
 max taucldi  3.7510040E-06
 max taucldw  3.5557769E-05
 Switching is not necessary as we are already
 in the right domain!
 GIGC_Chunk_Run: Running for in-PET grid #           1
 GIGC_Chunk_Run: Received new grid IM, JM, LM =          15           9
          49
 =================================================
 W R F - G C   T I M E R S
    Domain           1 (Units: s)
 =================================================
  => Coupler Component                       2.430
   -- Physics & Parameterization             0.581
   -- Diagnostics Out                        0.000
  => GEOS-Chem Column                      194.612
  ===> Total Chemistry                     197.042
  => WRF                                  1097.828
  ===> Total WRF-GC                       1294.870
 max optd  1.9364301E+31
 max taucldi  3.9446945E-06
 max taucldw  3.6649752E-05
 Switching is not necessary as we are already
 in the right domain!
 GIGC_Chunk_Run: Running for in-PET grid #           1
 GIGC_Chunk_Run: Received new grid IM, JM, LM =          15           9
          49
 =================================================
 W R F - G C   T I M E R S
    Domain           1 (Units: s)
 =================================================
  => Coupler Component                       2.467
   -- Physics & Parameterization             0.591
   -- Diagnostics Out                        0.000
  => GEOS-Chem Column                      195.645
  ===> Total Chemistry                     198.112
  => WRF                                  1115.974
  ===> Total WRF-GC                       1314.086
 HOURLY EMISSIONS UPDATE TIME    18000.0       0.0
mediation_integrate: med_read_wrf_chem_emissions: Read emissions for time 2018-01-01_05:00:00
 max optd  1.9364301E+31
 max taucldi  4.1383591E-06
 max taucldw  3.7747690E-05
 Switching is not necessary as we are already
 in the right domain!
 GIGC_Chunk_Run: Running for in-PET grid #           1
 GIGC_Chunk_Run: Received new grid IM, JM, LM =          15           9
          49
 =================================================
 W R F - G C   T I M E R S
    Domain           1 (Units: s)
 =================================================
  => Coupler Component                       2.503
   -- Physics & Parameterization             0.601
   -- Diagnostics Out                        0.000
  => GEOS-Chem Column                      196.693
  ===> Total Chemistry                     199.196
  => WRF                                  1134.162
  ===> Total WRF-GC                       1333.359
 max optd  1.9364301E+31
 max taucldi  4.3262248E-06
 max taucldw  3.8810427E-05
 Switching is not necessary as we are already
 in the right domain!
 GIGC_Chunk_Run: Running for in-PET grid #           1
 GIGC_Chunk_Run: Received new grid IM, JM, LM =          15           9
          49
 =================================================
 W R F - G C   T I M E R S
    Domain           1 (Units: s)
 =================================================
  => Coupler Component                       2.539
   -- Physics & Parameterization             0.611
   -- Diagnostics Out                        0.000
  => GEOS-Chem Column                      197.746
  ===> Total Chemistry                     200.285
  => WRF                                  1152.267
  ===> Total WRF-GC                       1352.552
 max optd  1.9364301E+31
 max taucldi  4.5007268E-06
 max taucldw  3.9785045E-05
 Switching is not necessary as we are already
 in the right domain!
 GIGC_Chunk_Run: Running for in-PET grid #           1
 GIGC_Chunk_Run: Received new grid IM, JM, LM =          15           9
          49
 =================================================
 W R F - G C   T I M E R S
    Domain           1 (Units: s)
 =================================================
  => Coupler Component                       2.583
   -- Physics & Parameterization             0.620
   -- Diagnostics Out                        0.000
  => GEOS-Chem Column                      198.754
  ===> Total Chemistry                     201.337
  => WRF                                  1170.360
  ===> Total WRF-GC                       1371.697
 max optd  1.9364301E+31
 max taucldi  4.6512732E-06
 max taucldw  4.0592287E-05
 Switching is not necessary as we are already
 in the right domain!
 GIGC_Chunk_Run: Running for in-PET grid #           1
 GIGC_Chunk_Run: Received new grid IM, JM, LM =          15           9
          49
 =================================================
 W R F - G C   T I M E R S
    Domain           1 (Units: s)
 =================================================
  => Coupler Component                       2.622
   -- Physics & Parameterization             0.630
   -- Diagnostics Out                        0.000
  => GEOS-Chem Column                      199.788
  ===> Total Chemistry                     202.410
  => WRF                                  1188.539
  ===> Total WRF-GC                       1390.949
 max optd  1.9364301E+31
 max taucldi  4.7749818E-06
 max taucldw  4.1218034E-05
 Switching is not necessary as we are already
 in the right domain!
 GIGC_Chunk_Run: Running for in-PET grid #           1
 GIGC_Chunk_Run: Received new grid IM, JM, LM =          15           9
          49
 =================================================
 W R F - G C   T I M E R S
    Domain           1 (Units: s)
 =================================================
  => Coupler Component                       2.668
   -- Physics & Parameterization             0.639
   -- Diagnostics Out                        0.000
  => GEOS-Chem Column                      200.801
  ===> Total Chemistry                     203.469
  => WRF                                  1206.721
  ===> Total WRF-GC                       1410.190
 max optd  1.9364301E+31
 max taucldi  4.8714437E-06
 max taucldw  4.1663876E-05
 Switching is not necessary as we are already
 in the right domain!
 GIGC_Chunk_Run: Running for in-PET grid #           1
 GIGC_Chunk_Run: Received new grid IM, JM, LM =          15           9
          49
 =================================================
 W R F - G C   T I M E R S
    Domain           1 (Units: s)
 =================================================
  => Coupler Component                       2.705
   -- Physics & Parameterization             0.650
   -- Diagnostics Out                        0.000
  => GEOS-Chem Column                      201.845
  ===> Total Chemistry                     204.550
  => WRF                                  1224.858
  ===> Total WRF-GC                       1429.407
 max optd  1.9364301E+31
 max taucldi  4.9355945E-06
 max taucldw  4.1882671E-05
 Switching is not necessary as we are already
 in the right domain!
 GIGC_Chunk_Run: Running for in-PET grid #           1
 GIGC_Chunk_Run: Received new grid IM, JM, LM =          15           9
          49
 =================================================
 W R F - G C   T I M E R S
    Domain           1 (Units: s)
 =================================================
  => Coupler Component                       2.740
   -- Physics & Parameterization             0.659
   -- Diagnostics Out                        0.000
  => GEOS-Chem Column                      202.882
  ===> Total Chemistry                     205.623
  => WRF                                  1243.064
  ===> Total WRF-GC                       1448.687
 max optd  1.9364301E+31
 max taucldi  4.9729069E-06
 max taucldw  4.1911891E-05
 Switching is not necessary as we are already
 in the right domain!
 GIGC_Chunk_Run: Running for in-PET grid #           1
 GIGC_Chunk_Run: Received new grid IM, JM, LM =          15           9
          49
 =================================================
 W R F - G C   T I M E R S
    Domain           1 (Units: s)
 =================================================
  => Coupler Component                       2.779
   -- Physics & Parameterization             0.669
   -- Diagnostics Out                        0.000
  => GEOS-Chem Column                      203.885
  ===> Total Chemistry                     206.663
  => WRF                                  1261.166
  ===> Total WRF-GC                       1467.830
 max optd  1.9364301E+31
 max taucldi  5.0097942E-06
 max taucldw  4.1826210E-05
 Switching is not necessary as we are already
 in the right domain!
 GIGC_Chunk_Run: Running for in-PET grid #           1
 GIGC_Chunk_Run: Received new grid IM, JM, LM =          15           9
          49
 =================================================
 W R F - G C   T I M E R S
    Domain           1 (Units: s)
 =================================================
  => Coupler Component                       2.821
   -- Physics & Parameterization             0.679
   -- Diagnostics Out                        0.000
  => GEOS-Chem Column                      204.909
  ===> Total Chemistry                     207.730
  => WRF                                  1279.408
  ===> Total WRF-GC                       1487.138
 max optd  1.9364301E+31
 max taucldi  5.1159923E-06
 max taucldw  4.1632458E-05
 Switching is not necessary as we are already
 in the right domain!
 GIGC_Chunk_Run: Running for in-PET grid #           1
 GIGC_Chunk_Run: Received new grid IM, JM, LM =          15           9
          49
 =================================================
 W R F - G C   T I M E R S
    Domain           1 (Units: s)
 =================================================
  => Coupler Component                       2.859
   -- Physics & Parameterization             0.688
   -- Diagnostics Out                        0.000
  => GEOS-Chem Column                      205.949
  ===> Total Chemistry                     208.808
  => WRF                                  1297.840
  ===> Total WRF-GC                       1506.648
 max optd  1.9364301E+31
 max taucldi  5.2149790E-06
 max taucldw  4.1377891E-05
 Switching is not necessary as we are already
 in the right domain!
 GIGC_Chunk_Run: Running for in-PET grid #           1
 GIGC_Chunk_Run: Received new grid IM, JM, LM =          15           9
          49
 =================================================
 W R F - G C   T I M E R S
    Domain           1 (Units: s)
 =================================================
  => Coupler Component                       2.904
   -- Physics & Parameterization             0.698
   -- Diagnostics Out                        0.000
  => GEOS-Chem Column                      206.963
  ===> Total Chemistry                     209.867
  => WRF                                  1315.957
  ===> Total WRF-GC                       1525.824
 max optd  1.9364301E+31
 max taucldi  5.3109552E-06
 max taucldw  4.1105446E-05
 Switching is not necessary as we are already
 in the right domain!
 GIGC_Chunk_Run: Running for in-PET grid #           1
 GIGC_Chunk_Run: Received new grid IM, JM, LM =          15           9
          49
 =================================================
 W R F - G C   T I M E R S
    Domain           1 (Units: s)
 =================================================
  => Coupler Component                       2.943
   -- Physics & Parameterization             0.708
   -- Diagnostics Out                        0.000
  => GEOS-Chem Column                      207.986
  ===> Total Chemistry                     210.929
  => WRF                                  1334.145
  ===> Total WRF-GC                       1545.074
 HOURLY EMISSIONS UPDATE TIME    21600.0       0.0
mediation_integrate: med_read_wrf_chem_emissions: Read emissions for time 2018-01-01_06:00:00
 max optd  1.9364301E+31
 max taucldi  5.4055690E-06
 max taucldw  4.1038475E-05
 Switching is not necessary as we are already
 in the right domain!
 GIGC_Chunk_Run: Running for in-PET grid #           1
 GIGC_Chunk_Run: Received new grid IM, JM, LM =          15           9
          49
 =================================================
 W R F - G C   T I M E R S
    Domain           1 (Units: s)
 =================================================
  => Coupler Component                       2.977
   -- Physics & Parameterization             0.718
   -- Diagnostics Out                        0.000
  => GEOS-Chem Column                      209.059
  ===> Total Chemistry                     212.036
  => WRF                                  1792.831
  ===> Total WRF-GC                       2004.868
 max optd  1.9364301E+31
 max taucldi  5.4943380E-06
 max taucldw  4.1166510E-05
 Switching is not necessary as we are already
 in the right domain!
 GIGC_Chunk_Run: Running for in-PET grid #           1
 GIGC_Chunk_Run: Received new grid IM, JM, LM =          15           9
          49
 =================================================
 W R F - G C   T I M E R S
    Domain           1 (Units: s)
 =================================================
  => Coupler Component                       3.013
   -- Physics & Parameterization             0.727
   -- Diagnostics Out                        0.000
  => GEOS-Chem Column                      210.105
  ===> Total Chemistry                     213.118
  => WRF                                  1810.956
  ===> Total WRF-GC                       2024.074
 max optd  1.9364301E+31
 max taucldi  5.5733112E-06
 max taucldw  4.1583793E-05
 Switching is not necessary as we are already
 in the right domain!
 GIGC_Chunk_Run: Running for in-PET grid #           1
 GIGC_Chunk_Run: Received new grid IM, JM, LM =          15           9
          49
 =================================================
 W R F - G C   T I M E R S
    Domain           1 (Units: s)
 =================================================
  => Coupler Component                       3.057
   -- Physics & Parameterization             0.737
   -- Diagnostics Out                        0.000
  => GEOS-Chem Column                      211.114
  ===> Total Chemistry                     214.171
  => WRF                                  1829.235
  ===> Total WRF-GC                       2043.406
 max optd  1.9364301E+31
 max taucldi  5.6447980E-06
 max taucldw  4.2211985E-05
 Switching is not necessary as we are already
 in the right domain!
 GIGC_Chunk_Run: Running for in-PET grid #           1
 GIGC_Chunk_Run: Received new grid IM, JM, LM =          15           9
          49
 =================================================
 W R F - G C   T I M E R S
    Domain           1 (Units: s)
 =================================================
  => Coupler Component                       3.095
[...]
  => GEOS-Chem Column                      257.250
  ===> Total Chemistry                     262.094
  => WRF                                  2648.551
  ===> Total WRF-GC                       2910.646
 HOURLY EMISSIONS UPDATE TIME    36000.0       0.0
mediation_integrate: med_read_wrf_chem_emissions: Read emissions for time 2018-01-01_10:00:00
 max optd  1.9364301E+31
 max taucldi  8.9031373E-06
 max taucldw  4.8379767E-05
 Switching is not necessary as we are already
 in the right domain!
 GIGC_Chunk_Run: Running for in-PET grid #           1
 GIGC_Chunk_Run: Received new grid IM, JM, LM =          15           9
          49
 =================================================
 W R F - G C   T I M E R S
    Domain           1 (Units: s)
 =================================================
  => Coupler Component                       4.887
   -- Physics & Parameterization             1.173
   -- Diagnostics Out                        0.000
  => GEOS-Chem Column                      258.267
  ===> Total Chemistry                     263.154
  => WRF                                  2666.787
  ===> Total WRF-GC                       2929.942
 max optd  1.9364301E+31
 max taucldi  9.0856274E-06
 max taucldw  4.8324251E-05
 Switching is not necessary as we are already
 in the right domain!
 GIGC_Chunk_Run: Running for in-PET grid #           1
 GIGC_Chunk_Run: Received new grid IM, JM, LM =          15           9
          49
 =================================================
 W R F - G C   T I M E R S
    Domain           1 (Units: s)
 =================================================
  => Coupler Component                       4.931
   -- Physics & Parameterization             1.183
   -- Diagnostics Out                        0.000
  => GEOS-Chem Column                      259.277
  ===> Total Chemistry                     264.208
  => WRF                                  2684.977
  ===> Total WRF-GC                       2949.185
 max optd  1.9364301E+31
 max taucldi  9.2824312E-06
 max taucldw  4.8318780E-05
 Switching is not necessary as we are already
 in the right domain!
 GIGC_Chunk_Run: Running for in-PET grid #           1
 GIGC_Chunk_Run: Received new grid IM, JM, LM =          15           9
          49
 =================================================
 W R F - G C   T I M E R S
    Domain           1 (Units: s)
 =================================================
  => Coupler Component                       4.972
   -- Physics & Parameterization             1.192
   -- Diagnostics Out                        0.000
  => GEOS-Chem Column                      260.292
  ===> Total Chemistry                     265.264
  => WRF                                  2703.154
  ===> Total WRF-GC                       2968.418
 max optd  1.9364301E+31
 max taucldi  9.4966908E-06
 max taucldw  4.8385155E-05
 Switching is not necessary as we are already
 in the right domain!
 GIGC_Chunk_Run: Running for in-PET grid #           1
 GIGC_Chunk_Run: Received new grid IM, JM, LM =          15           9
          49
 =================================================
 W R F - G C   T I M E R S
    Domain           1 (Units: s)
 =================================================
  => Coupler Component                       5.011
   -- Physics & Parameterization             1.201
   -- Diagnostics Out                        0.000
  => GEOS-Chem Column                      261.307
  ===> Total Chemistry                     266.319
  => WRF                                  2721.427
  ===> Total WRF-GC                       2987.746
 max optd  1.9364301E+31
 max taucldi  9.7243210E-06
 max taucldw  4.8656620E-05
 Switching is not necessary as we are already
 in the right domain!
 GIGC_Chunk_Run: Running for in-PET grid #           1
 GIGC_Chunk_Run: Received new grid IM, JM, LM =          15           9
          49
 =================================================
 W R F - G C   T I M E R S
    Domain           1 (Units: s)
 =================================================
  => Coupler Component                       5.054
   -- Physics & Parameterization             1.211
   -- Diagnostics Out                        0.000
  => GEOS-Chem Column                      262.323
  ===> Total Chemistry                     267.377
  => WRF                                  2739.675
  ===> Total WRF-GC                       3007.052
 max optd  1.9364301E+31
 max taucldi  9.9601020E-06
 max taucldw  4.9091683E-05
 Switching is not necessary as we are already
 in the right domain!
 GIGC_Chunk_Run: Running for in-PET grid #           1
 GIGC_Chunk_Run: Received new grid IM, JM, LM =          15           9
          49
 =================================================
 W R F - G C   T I M E R S
    Domain           1 (Units: s)
 =================================================
  => Coupler Component                       5.097
   -- Physics & Parameterization             1.220
   -- Diagnostics Out                        0.000
  => GEOS-Chem Column                      263.328
  ===> Total Chemistry                     268.425
  => WRF                                  2757.801
  ===> Total WRF-GC                       3026.225
 max optd  1.9364301E+31
 max taucldi  1.0201389E-05
 max taucldw  4.9515129E-05
 Switching is not necessary as we are already
 in the right domain!
 GIGC_Chunk_Run: Running for in-PET grid #           1
 GIGC_Chunk_Run: Received new grid IM, JM, LM =          15           9
          49
 =================================================
 W R F - G C   T I M E R S
    Domain           1 (Units: s)
 =================================================
  => Coupler Component                       5.144
   -- Physics & Parameterization             1.229
   -- Diagnostics Out                        0.000
  => GEOS-Chem Column                      264.340
  ===> Total Chemistry                     269.484
  => WRF                                  2776.022
  ===> Total WRF-GC                       3045.507
 max optd  1.9364301E+31
 max taucldi  1.0441077E-05
 max taucldw  4.9901279E-05
 Switching is not necessary as we are already
 in the right domain!
 GIGC_Chunk_Run: Running for in-PET grid #           1
 GIGC_Chunk_Run: Received new grid IM, JM, LM =          15           9
          49
 =================================================
 W R F - G C   T I M E R S
    Domain           1 (Units: s)
 =================================================
  => Coupler Component                       5.189
   -- Physics & Parameterization             1.239
   -- Diagnostics Out                        0.000
  => GEOS-Chem Column                      265.358
  ===> Total Chemistry                     270.546
  => WRF                                  2794.241
  ===> Total WRF-GC                       3064.787
 max optd  1.9364301E+31
 max taucldi  1.0676493E-05
 max taucldw  5.0252274E-05
 Switching is not necessary as we are already
 in the right domain!
 GIGC_Chunk_Run: Running for in-PET grid #           1
 GIGC_Chunk_Run: Received new grid IM, JM, LM =          15           9
          49
 =================================================
 W R F - G C   T I M E R S
    Domain           1 (Units: s)
 =================================================
  => Coupler Component                       5.234
   -- Physics & Parameterization             1.248
   -- Diagnostics Out                        0.000
  => GEOS-Chem Column                      266.369
  ===> Total Chemistry                     271.603
  => WRF                                  2812.380
  ===> Total WRF-GC                       3083.983
 max optd  1.9364301E+31
 max taucldi  1.0918480E-05
 max taucldw  5.0630766E-05
 Switching is not necessary as we are already
 in the right domain!
 GIGC_Chunk_Run: Running for in-PET grid #           1
 GIGC_Chunk_Run: Received new grid IM, JM, LM =          15           9
          49
 =================================================
 W R F - G C   T I M E R S
    Domain           1 (Units: s)
 =================================================
  => Coupler Component                       5.280
   -- Physics & Parameterization             1.258
   -- Diagnostics Out                        0.000
  => GEOS-Chem Column                      267.384
  ===> Total Chemistry                     272.663
  => WRF                                  2830.631
  ===> Total WRF-GC                       3103.294
 max optd  1.9364301E+31
 max taucldi  1.1171431E-05
 max taucldw  5.1052451E-05
 Switching is not necessary as we are already
 in the right domain!
 GIGC_Chunk_Run: Running for in-PET grid #           1
 GIGC_Chunk_Run: Received new grid IM, JM, LM =          15           9
          49
 =================================================
 W R F - G C   T I M E R S
    Domain           1 (Units: s)
 =================================================
  => Coupler Component                       5.322
   -- Physics & Parameterization             1.267
   -- Diagnostics Out                        0.000
  => GEOS-Chem Column                      268.390
  ===> Total Chemistry                     273.712
  => WRF                                  2848.825
  ===> Total WRF-GC                       3122.537
 max optd  1.9364301E+31
 max taucldi  1.1430975E-05
 max taucldw  5.1493607E-05
 Switching is not necessary as we are already
 in the right domain!
 GIGC_Chunk_Run: Running for in-PET grid #           1
 GIGC_Chunk_Run: Received new grid IM, JM, LM =          15           9
          49
 =================================================
 W R F - G C   T I M E R S
    Domain           1 (Units: s)
 =================================================
  => Coupler Component                       5.355
   -- Physics & Parameterization             1.277
   -- Diagnostics Out                        0.000
  => GEOS-Chem Column                      269.444
  ===> Total Chemistry                     274.799
  => WRF                                  2867.091
  ===> Total WRF-GC                       3141.891
 HOURLY EMISSIONS UPDATE TIME    39600.0       0.0
mediation_integrate: med_read_wrf_chem_emissions: Read emissions for time 2018-01-01_11:00:00
 max optd  1.9364301E+31
 max taucldi  1.1694083E-05
 max taucldw  5.1942086E-05
 Switching is not necessary as we are already
 in the right domain!
 GIGC_Chunk_Run: Running for in-PET grid #           1
 GIGC_Chunk_Run: Received new grid IM, JM, LM =          15           9
          49
 =================================================
 W R F - G C   T I M E R S
    Domain           1 (Units: s)
 =================================================
  => Coupler Component                       5.390
   -- Physics & Parameterization             1.286
   -- Diagnostics Out                        0.000
  => GEOS-Chem Column                      270.476
  ===> Total Chemistry                     275.866
  => WRF                                  2885.276
  ===> Total WRF-GC                       3161.143
 max optd  1.9364301E+31
 max taucldi  1.1962147E-05
 max taucldw  5.2403309E-05
 Switching is not necessary as we are already
 in the right domain!
 GIGC_Chunk_Run: Running for in-PET grid #           1
 GIGC_Chunk_Run: Received new grid IM, JM, LM =          15           9
          49
 =================================================
 W R F - G C   T I M E R S
    Domain           1 (Units: s)
 =================================================
  => Coupler Component                       5.427
   -- Physics & Parameterization             1.296
   -- Diagnostics Out                        0.000
  => GEOS-Chem Column                      271.511
  ===> Total Chemistry                     276.937
  => WRF                                  2903.430
  ===> Total WRF-GC                       3180.367
 max optd  1.9364301E+31
 max taucldi  1.2229059E-05
 max taucldw  5.2848256E-05
 Switching is not necessary as we are already
 in the right domain!
 GIGC_Chunk_Run: Running for in-PET grid #           1
 GIGC_Chunk_Run: Received new grid IM, JM, LM =          15           9
          49
 =================================================
 W R F - G C   T I M E R S
    Domain           1 (Units: s)
 =================================================
  => Coupler Component                       5.471
   -- Physics & Parameterization             1.305
   -- Diagnostics Out                        0.000
  => GEOS-Chem Column                      272.525
  ===> Total Chemistry                     277.996
  => WRF                                  2921.663
  ===> Total WRF-GC                       3199.659
 max optd  1.9364301E+31
 max taucldi  1.2482979E-05
 max taucldw  5.3234922E-05
 Switching is not necessary as we are already
 in the right domain!
 GIGC_Chunk_Run: Running for in-PET grid #           1
 GIGC_Chunk_Run: Received new grid IM, JM, LM =          15           9
          49
 =================================================
 W R F - G C   T I M E R S
    Domain           1 (Units: s)
 =================================================
  => Coupler Component                       5.519
   -- Physics & Parameterization             1.315
   -- Diagnostics Out                        0.000
  => GEOS-Chem Column                      273.539
  ===> Total Chemistry                     279.057
  => WRF                                  2939.976
  ===> Total WRF-GC                       3219.033
 max optd  1.9364301E+31
 max taucldi  1.2722395E-05
 max taucldw  5.3563621E-05
 Switching is not necessary as we are already
 in the right domain!
 GIGC_Chunk_Run: Running for in-PET grid #           1
 GIGC_Chunk_Run: Received new grid IM, JM, LM =          15           9
          49
 =================================================
 W R F - G C   T I M E R S
    Domain           1 (Units: s)
 =================================================
  => Coupler Component                       5.561
   -- Physics & Parameterization             1.325
   -- Diagnostics Out                        0.000
  => GEOS-Chem Column                      274.548
  ===> Total Chemistry                     280.109
  => WRF                                  2958.426
  ===> Total WRF-GC                       3238.535
 max optd  1.9364301E+31
 max taucldi  1.2949344E-05
 max taucldw  5.3844557E-05
 Switching is not necessary as we are already
 in the right domain!
 GIGC_Chunk_Run: Running for in-PET grid #           1
 GIGC_Chunk_Run: Received new grid IM, JM, LM =          15           9
          49
 =================================================
 W R F - G C   T I M E R S
    Domain           1 (Units: s)
 =================================================
  => Coupler Component                       5.599
   -- Physics & Parameterization             1.334
   -- Diagnostics Out                        0.000
  => GEOS-Chem Column                      275.569
  ===> Total Chemistry                     281.168
  => WRF                                  2976.882
  ===> Total WRF-GC                       3258.051
 max optd  1.9364301E+31
 max taucldi  1.3166220E-05
 max taucldw  5.4089971E-05
 Switching is not necessary as we are already
 in the right domain!
 GIGC_Chunk_Run: Running for in-PET grid #           1
 GIGC_Chunk_Run: Received new grid IM, JM, LM =          15           9
          49
 =================================================
 W R F - G C   T I M E R S
    Domain           1 (Units: s)
 =================================================
  => Coupler Component                       5.635
   -- Physics & Parameterization             1.344
   -- Diagnostics Out                        0.000
  => GEOS-Chem Column                      276.604
  ===> Total Chemistry                     282.239
  => WRF                                  2995.462
  ===> Total WRF-GC                       3277.701
 max optd  1.9364301E+31
 max taucldi  1.3376337E-05
 max taucldw  5.4315075E-05
 Switching is not necessary as we are already
 in the right domain!
 GIGC_Chunk_Run: Running for in-PET grid #           1
 GIGC_Chunk_Run: Received new grid IM, JM, LM =          15           9
          49
 =================================================
 W R F - G C   T I M E R S
    Domain           1 (Units: s)
 =================================================
  => Coupler Component                       5.671
   -- Physics & Parameterization             1.353
   -- Diagnostics Out                        0.000
  => GEOS-Chem Column                      277.634
  ===> Total Chemistry                     283.306
  => WRF                                  3014.050
  ===> Total WRF-GC                       3297.355
 max optd  1.9364301E+31
 max taucldi  1.3582042E-05
 max taucldw  5.4527576E-05
 Switching is not necessary as we are already
 in the right domain!
 GIGC_Chunk_Run: Running for in-PET grid #           1
 GIGC_Chunk_Run: Received new grid IM, JM, LM =          15           9
          49
 =================================================
 W R F - G C   T I M E R S
    Domain           1 (Units: s)
 =================================================
  => Coupler Component                       5.711
   -- Physics & Parameterization             1.363
   -- Diagnostics Out                        0.000
  => GEOS-Chem Column                      278.666
  ===> Total Chemistry                     284.377
  => WRF                                  3032.763
  ===> Total WRF-GC                       3317.141
 max optd  1.9364301E+31
 max taucldi  1.3776320E-05
 max taucldw  5.5119770E-05
 Switching is not necessary as we are already
 in the right domain!
 GIGC_Chunk_Run: Running for in-PET grid #           1
 GIGC_Chunk_Run: Received new grid IM, JM, LM =          15           9
          49
 =================================================
 W R F - G C   T I M E R S
    Domain           1 (Units: s)
 =================================================
  => Coupler Component                       5.758
   -- Physics & Parameterization             1.372
   -- Diagnostics Out                        0.000
  => GEOS-Chem Column                      279.683
  ===> Total Chemistry                     285.441
  => WRF                                  3051.670
  ===> Total WRF-GC                       3337.111
 max optd  1.9364301E+31
 max taucldi  1.3942099E-05
 max taucldw  5.6376135E-05
 Switching is not necessary as we are already
 in the right domain!
 GIGC_Chunk_Run: Running for in-PET grid #           1
 GIGC_Chunk_Run: Received new grid IM, JM, LM =          15           9
          49
 =================================================
 W R F - G C   T I M E R S
    Domain           1 (Units: s)
 =================================================
  => Coupler Component                       5.795
   -- Physics & Parameterization             1.382
   -- Diagnostics Out                        0.000
  => GEOS-Chem Column                      280.712
  ===> Total Chemistry                     286.507
  => WRF                                  3070.526
  ===> Total WRF-GC                       3357.033
 max optd  1.9364301E+31
 max taucldi  1.4072475E-05
 max taucldw  5.7853202E-05
 Switching is not necessary as we are already
 in the right domain!
 GIGC_Chunk_Run: Running for in-PET grid #           1
 GIGC_Chunk_Run: Received new grid IM, JM, LM =          15           9
          49
 =================================================
 W R F - G C   T I M E R S
    Domain           1 (Units: s)
 =================================================
  => Coupler Component                       5.839
   -- Physics & Parameterization             1.391
   -- Diagnostics Out                        0.000
  => GEOS-Chem Column                      281.719
  ===> Total Chemistry                     287.558
  => WRF                                  3089.290
  ===> Total WRF-GC                       3376.848
d01 2018-01-01_12:00:00 wrf: SUCCESS COMPLETE WRF
