taskid: 2236 hostname: ip-172-31-7-194
Quilting with   1 groups of   0 I/O tasks.
 Ntasks in X           64 , ntasks in Y           72
--- WARNING: traj_opt is zero, but num_traj is not zero; setting num_traj to zero.
--- NOTE: sst_update is 0, setting io_form_auxinput4 = 0 and auxinput4_interval = 0 for all domains
--- NOTE: grid_fdda is 0 for domain      1, setting gfdda interval and ending time to 0 for that domain.
--- NOTE: both grid_sfdda and pxlsm_soil_nudge are 0 for domain      1, setting sgfdda interval and ending time to 0 for that domain.
--- NOTE: obs_nudge_opt is 0 for domain      1, setting obs nudging interval and ending time to 0 for that domain.
--- NOTE: bl_pbl_physics /= 4, implies mfshconv must be 0, resetting
Need MYNN PBL for icloud_bl = 1, resetting to 0
*************************************
No physics suite selected.
Physics options will be used directly from the namelist.
*************************************
--- NOTE: RRTMG radiation is in use, setting:  levsiz=59, alevsiz=12, no_src_types=6
--- NOTE: num_soil_layers has been set to      4
WRF V3.9.1.1 MODEL
 *************************************
 Parent domain
 ids,ide,jds,jde            1         950           1         650
 ims,ime,jms,jme          884         912         301         323
 ips,ipe,jps,jpe          891         905         308         316
 *************************************
DYNAMICS OPTION: Eulerian Mass Coordinate
   alloc_space_field: domain            1 ,              203623800  bytes allocated
  med_initialdata_input: calling input_input
Max map factor in domain 1 =  1.40. Scale the dt in the model accordingly.
INPUT LandUse = "USGS"
 LANDUSE TYPE = "USGS" FOUND          33  CATEGORIES           2  SEASONS WATER CATEGORY =           16  SNOW CATEGORY =           24
INITIALIZE THREE Noah LSM RELATED TABLES
*****************************************************************
  __          _______  ______       _____  _____ _    _ _____
  \ \        / /  __ \|  ____|     / ____|/ ____| |  | |  __ \
   \ \  /\  / /| |__) | |__ ______| |  __| |    | |__| | |__) |
    \ \/  \/ / |  _  /|  __|______| | |_ | |    |  __  |  ___/
     \  /\  /  | | \ \| |         | |__| | |____| |  | | |
      \/  \/   |_|  \_\_|          \_____|\_____|_|  |_|_|
*****************************************************************
         WRF-GC MODEL, VERSION 1811.11 - WRF BINDINGS
 For errors, suggestions & feedback email linhaipeng@pku.edu.cn
*****************************************************************
    This is domain            1
 ### GIGC_Stateful_Mod: Root CPU, after READ_INPUT_FILE
  Linoz Data:  O3 climatology :                  z*=10, 12, ..., 58                             2.700E-08 1.083E-05
  Linoz Data:  Temperature climatology :         z*=10, 12, ..., 58                             1.859E+02 2.904E+02
  Linoz Data:  Column O3 above box climalology : z*=10, 12, ..., 58                             7.538E-02 3.770E+02
  Linoz Data:  P-L O3 climatology (mr/s):        z*=10, 12, ..., 58                            -1.590E-10 2.835E-11
  Linoz Data:  d(P-L)/dO3 (1/s) :                z*=10, 12, ..., 58                            -8.386E-04 7.556E-09
  Linoz Data:  d(P-L)/dT (mr/K) :                z*=10, 12, ..., 58                            -5.742E-12 4.615E-14
  Linoz Data:  d(P-L)/d(column O3) (mr/DU) :     z*=10, 12, ..., 58                            -1.921E-12 5.038E-10
 ### GIGC_Stateful_Mod: Root CPU, after LINOZ_READ
 %%%%%%%%% GIGC IN-PET GRID SWITCHING HACKS %%%%%%%%%
     (Not very) Proudly brought to you by hplin      
 Some debug information:
 ID:           1
 IM, JM, LM:          15           9          49  will be set as PAR
 Allocs: CMN T GC F
 RC at entry-point:           0
 %%%%%%%%%%%%%%%%%%%%%%%%%%%%%%%%%%%%%%%%%%%%%%%%%%%%
 No need to switch HcoState for ID           1
 Exit RC:            0
 %%%%%%%%%    FINISHED GIGC_Switch_Dims    %%%%%%%%%
 GIGC_Chunk_Init: Received new grid IM, JM, LM =          15           9
          49
     ### GIGC_INIT_SIMULATION: after Input_Opt% setups
     ### GIGC_INIT_SIMULATION: after GC_Init_All
     ### GIGC_INIT_SIMULATION: after GC_Init_Extra
     ### GIGC_INIT_SIMULATION: after INIT_FJX
 # GIGC_CHUNK_MOD: after SV save, ID =           1
 WRFGC chemics_init: Following information regarding Input_Opt% (for all doms)
 After domain           1
 HPC:  T
 LPRT:  F
 DoConv:  T
 DoDryDep:  T
 DoEmis:  T
 DoChem:  T
 DoTurb:  T
 DoWetDep:  T

 tropopause_init: DONE intialized domain            1

 mediation_integrate: med_read_wrf_chem_emissions: Open file wrfchemi_00z_d01
 HOURLY EMISSIONS UPDATE TIME        0.0       0.0
mediation_integrate: med_read_wrf_chem_emissions: Read emissions for time 2018-01-01_00:00:00
open_aux_u : error opening wrffirechemi_d01_2018-01-01_00:00:00 for reading. 100
open_aux_u : error opening wrfchemi_gocart_bg_d01 for reading. 100
d01 2018-01-01_00:00:00 Input data processed for aux input   8 for domain   1
open_aux_u : error opening wrfchemv_d01 for reading. 100
 Tile Strategy is not specified. Assuming 1D-Y
WRF TILE   1 IS    891 IE    905 JS    308 JE    316
WRF NUMBER OF TILES =   1
 max optd  4.0020485E+33
 max taucldi  0.0000000E+00
 max taucldw  0.0000000E+00
 =================================================
 W R F - G C   T I M E R S
    Domain           1 (Units: s)
 =================================================
  => Coupler Component                       0.026
   -- Physics & Parameterization             0.001
   -- Diagnostics Out                        0.000
  => GEOS-Chem Column                        0.000
  ===> Total Chemistry                       0.026
  => WRF                                     0.000
  ===> Total WRF-GC                          0.026
 max optd  4.0020485E+33
 max taucldi  1.0000007E-14
 max taucldw  1.0000007E-14
 %%%%%%%%% GIGC IN-PET GRID SWITCHING HACKS %%%%%%%%%
     (Not very) Proudly brought to you by hplin      
 Some debug information:
 ID:           1
 IM, JM, LM:          15           9          49  will be set as PAR
 Allocs: CMN T GC T
 RC at entry-point:           0
 %%%%%%%%%%%%%%%%%%%%%%%%%%%%%%%%%%%%%%%%%%%%%%%%%%%%
 No need to switch HcoState for ID           1
 Debug HcoState nSpc, NX, NY, NZ         163          15           9          49
 Exit RC:            0
 %%%%%%%%%    FINISHED GIGC_Switch_Dims    %%%%%%%%%
 GIGC_Chunk_Run: Running for in-PET grid #           1
 GIGC_Chunk_Run: Received new grid IM, JM, LM =          15           9
          49
HEMCO: Opening /fsx/HEMCO/BIOFUEL/v2014-07/biofuel.geos.4x5.nc
HEMCO: Opening /fsx/HEMCO/BROMINE/v2015-02/Bromocarb_Liang2010.nc
HEMCO: Opening /fsx/HEMCO/ACET/v2014-07/ACET_seawater.generic.1x1.nc
HEMCO: Opening /fsx/HEMCO/SOILNOX/v2014-07/DepReservoirDefault.nc
HEMCO: Opening /fsx/HEMCO/SOILNOX/v2014-07/soilNOx.landtype.generic.025x025.1L.nc
HEMCO: Opening /fsx/HEMCO/SOILNOX/v2014-07/soilNOx.climate.generic.05x05.nc
HEMCO: Opening /fsx/HEMCO/DUST_DEAD/v2014-07/dst_tibds.geos.4x5.nc
HEMCO: Opening /fsx/HEMCO/DUST_DEAD/v2014-07/GOCART_src_fn.geos.4x5.nc
HEMCO: Opening /fsx/HEMCO/MEGAN/v2018-05/MEGAN2.1_EF.geos.025x03125.nc
HEMCO: Opening /fsx/HEMCO/MEGAN/v2017-07/CLM4_PFT.geos.025x03125.nc
HEMCO: Opening /fsx/HEMCO/TIMEZONES/v2015-02/timezones_voronoi_1x1.nc
HEMCO: Opening /fsx/HEMCO/STRAT/v2015-01/Bry/GEOSCCM_Bry.200701.day.nc
HEMCO: Opening /fsx/HEMCO/STRAT/v2015-01/Bry/GEOSCCM_Bry.200701.night.nc
HEMCO: Opening /fsx/HEMCO/OMOC/v2018-01/OMOC.DJF.01x01.nc
HEMCO: Opening /fsx/HEMCO/OMOC/v2018-01/OMOC.MAM.01x01.nc
HEMCO: Opening /fsx/HEMCO/OMOC/v2018-01/OMOC.JJA.01x01.nc
HEMCO: Opening /fsx/HEMCO/OMOC/v2018-01/OMOC.SON.01x01.nc
HEMCO: Opening /fsx/HEMCO/AnnualScalar/v2014-07/AnnualScalar.geos.1x1.nc
HEMCO: Opening /fsx/HEMCO/EDGARv42/v2015-02/NO/EDGAR_hourly_NOxScal.nc
HEMCO: Opening /fsx/HEMCO/MASKS/v2018-09/EMEP_mask.geos.1x1.20151222.nc
HEMCO: Opening /fsx/HEMCO/MASKS/v2018-09/Canada_mask.geos.1x1.nc
HEMCO: Opening /fsx/HEMCO/MASKS/v2018-09/SE_Asia_mask.generic.1x1.nc
HEMCO: Opening /fsx/HEMCO/MASKS/v2018-09/MIX_Asia_mask.generic.025x025.nc
HEMCO: Opening /fsx/HEMCO/MASKS/v2018-09/CONUS_Mask.01x01.nc
HEMCO: Opening /fsx/HEMCO/MASKS/v2018-09/AF_LANDMASK.geos.05x0666.global.nc
HEMCO: Opening /fsx/HEMCO/MASKS/v2018-09/China_mask.generic.1x1.nc
HEMCO: Opening /fsx/HEMCO/MASKS/v2018-09/India_mask.generic.1x1.nc
HEMCO: Opening /fsx/HEMCO/AnnualScalar/v2014-07/AnnualScalar.geos.1x1.nc
HEMCO: Opening /fsx/HEMCO/NH3/v2014-07/NH3_geos.4x5.nc
HEMCO: Opening /fsx/HEMCO/NH3/v2018-04/NH3_Arctic_seabirds.nc
HEMCO: Opening /fsx/HEMCO/CEDS/v2018-08/2014/NO-em-anthro_CMIP_CEDS_2014.nc
HEMCO: Opening /fsx/HEMCO/CEDS/v2018-08/2014/CO-em-anthro_CMIP_CEDS_2014.nc
HEMCO: Opening /fsx/HEMCO/CEDS/v2018-08/2014/SO2-em-anthro_CMIP_CEDS_2014.nc
HEMCO: Opening /fsx/HEMCO/CEDS/v2018-08/2014/NH3-em-anthro_CMIP_CEDS_2014.nc
HEMCO: Opening /fsx/HEMCO/CEDS/v2018-08/2014/BC-em-anthro_CMIP_CEDS_2014.nc
HEMCO: Opening /fsx/HEMCO/CEDS/v2018-08/2014/OC-em-anthro_CMIP_CEDS_2014.nc
HEMCO: Opening /fsx/HEMCO/CEDS/v2018-08/2014/EOH-em-anthro_CMIP_CEDS_2014.nc
HEMCO: Opening /fsx/HEMCO/CEDS/v2018-08/2014/C2H6-em-anthro_CMIP_CEDS_2014.nc
HEMCO: Opening /fsx/HEMCO/CEDS/v2018-08/2014/C3H8-em-anthro_CMIP_CEDS_2014.nc
HEMCO: Opening /fsx/HEMCO/CEDS/v2018-08/2014/ALK4_butanes-em-anthro_CMIP_CEDS_2014.nc
HEMCO: Opening /fsx/HEMCO/CEDS/v2018-08/2014/ALK4_pentanes-em-anthro_CMIP_CEDS_2014.nc
HEMCO: Opening /fsx/HEMCO/CEDS/v2018-08/2014/ALK4_hexanes-em-anthro_CMIP_CEDS_2014.nc
HEMCO: Opening /fsx/HEMCO/CEDS/v2018-08/2014/PRPE-em-anthro_CMIP_CEDS_2014.nc
HEMCO: Opening /fsx/HEMCO/CEDS/v2018-08/2014/BENZ-em-anthro_CMIP_CEDS_2014.nc
HEMCO: Opening /fsx/HEMCO/CEDS/v2018-08/2014/TOLU-em-anthro_CMIP_CEDS_2014.nc
HEMCO: Opening /fsx/HEMCO/CEDS/v2018-08/2014/XYLE-em-anthro_CMIP_CEDS_2014.nc
HEMCO: Opening /fsx/HEMCO/CEDS/v2018-08/2014/CH2O-em-anthro_CMIP_CEDS_2014.nc
HEMCO: Opening /fsx/HEMCO/CEDS/v2018-08/2014/ALD2-em-anthro_CMIP_CEDS_2014.nc
HEMCO: Opening /fsx/HEMCO/CEDS/v2018-08/2014/MEK-em-anthro_CMIP_CEDS_2014.nc
HEMCO: Opening /fsx/HEMCO/CEDS/v2018-08/2014/HCOOH-em-anthro_CMIP_CEDS_2014.nc
HEMCO: Opening /fsx/HEMCO/C2H6_2010/v2017-05/C2H6_global_anth_biof.201001.nc
HEMCO: Opening /fsx/HEMCO/NEI2011/v2017-02-MM/01/NEI11_0.1x0.1_201101_monmean.nc
HEMCO: Opening /fsx/HEMCO/NEI2011/v2017-02-MM/01/NEI11_0.1x0.1_201101_monmean_egu.nc
HEMCO: Opening /fsx/HEMCO/NEI2011/v2017-02-MM/01/NEI11_0.1x0.1_201101_monmean_egupk.nc
HEMCO: Opening /fsx/HEMCO/NEI2011/v2017-02-MM/01/NEI11_0.1x0.1_201101_monmean_oilgas.nc
HEMCO: Opening /fsx/HEMCO/NEI2011/v2017-02-MM/01/NEI11_0.1x0.1_201101_monmean_othpt.nc
HEMCO: Opening /fsx/HEMCO/NEI2011/v2017-02-MM/01/NEI11_0.1x0.1_201101_monmean_ptnonipm.nc
HEMCO: Opening /fsx/HEMCO/IODINE/v2017-09/CH3I_monthly_emissions_Ordonez_2012_COARDS.nc
HEMCO: Opening /fsx/HEMCO/IODINE/v2017-09/CH2I2_monthly_emissions_Ordonez_2012_COARDS.nc
HEMCO: Opening /fsx/HEMCO/IODINE/v2017-09/CH2ICl_monthly_emissions_Ordonez_2012_COARDS.nc
HEMCO: Opening /fsx/HEMCO/IODINE/v2017-09/CH2IBr_monthly_emissions_Ordonez_2012_COARDS.nc
HEMCO: Opening /fsx/HEMCO/CEDS/v2018-08/2014/CO-em-anthro_CMIP_CEDS_2014.nc
HEMCO: Opening /fsx/HEMCO/CEDS/v2018-08/2014/SO2-em-anthro_CMIP_CEDS_2014.nc
HEMCO: Opening /fsx/HEMCO/CEDS/v2018-08/2014/NH3-em-anthro_CMIP_CEDS_2014.nc
HEMCO: Opening /fsx/HEMCO/CEDS/v2018-08/2014/BC-em-anthro_CMIP_CEDS_2014.nc
HEMCO: Opening /fsx/HEMCO/CEDS/v2018-08/2014/OC-em-anthro_CMIP_CEDS_2014.nc
HEMCO: Opening /fsx/HEMCO/CEDS/v2018-08/2014/EOH-em-anthro_CMIP_CEDS_2014.nc
HEMCO: Opening /fsx/HEMCO/CEDS/v2018-08/2014/C2H6-em-anthro_CMIP_CEDS_2014.nc
HEMCO: Opening /fsx/HEMCO/CEDS/v2018-08/2014/C3H8-em-anthro_CMIP_CEDS_2014.nc
HEMCO: Opening /fsx/HEMCO/CEDS/v2018-08/2014/ALK4_butanes-em-anthro_CMIP_CEDS_2014.nc
HEMCO: Opening /fsx/HEMCO/CEDS/v2018-08/2014/ALK4_pentanes-em-anthro_CMIP_CEDS_2014.nc
HEMCO: Opening /fsx/HEMCO/CEDS/v2018-08/2014/ALK4_hexanes-em-anthro_CMIP_CEDS_2014.nc
HEMCO: Opening /fsx/HEMCO/CEDS/v2018-08/2014/PRPE-em-anthro_CMIP_CEDS_2014.nc
HEMCO: Opening /fsx/HEMCO/CEDS/v2018-08/2014/BENZ-em-anthro_CMIP_CEDS_2014.nc
HEMCO: Opening /fsx/HEMCO/CEDS/v2018-08/2014/TOLU-em-anthro_CMIP_CEDS_2014.nc
HEMCO: Opening /fsx/HEMCO/CEDS/v2018-08/2014/XYLE-em-anthro_CMIP_CEDS_2014.nc
HEMCO: Opening /fsx/HEMCO/CEDS/v2018-08/2014/CH2O-em-anthro_CMIP_CEDS_2014.nc
HEMCO: Opening /fsx/HEMCO/CEDS/v2018-08/2014/ALD2-em-anthro_CMIP_CEDS_2014.nc
HEMCO: Opening /fsx/HEMCO/CEDS/v2018-08/2014/MEK-em-anthro_CMIP_CEDS_2014.nc
HEMCO: Opening /fsx/HEMCO/CEDS/v2018-08/2014/HCOOH-em-anthro_CMIP_CEDS_2014.nc
HEMCO: Opening /fsx/HEMCO/CEDS/v2018-08/2014/NO-em-anthro_CMIP_CEDS_2014.nc
HEMCO: Opening /fsx/HEMCO/AEIC/v2015-01/AEIC.47L.gen.1x1.nc
HEMCO: Opening /fsx/HEMCO/ALD2/v2017-03/resp.geos.2x25.nc
HEMCO: Opening /fsx/HEMCO/DMS/v2015-07/DMS_lana.geos.1x1.nc
HEMCO: Opening /fsx/HEMCO/ALD2/v2017-03/ALD2_seawater.geos.2x25.nc
HEMCO: Opening /fsx/HEMCO/DUST_DEAD/v2014-07/dst_tvbds.geos.4x5.nc
HEMCO: Opening /fsx/HEMCO/DUST_DEAD/v2018-04/PM25FINE_ECLIPSE_2015.geos.2x25.nc
HEMCO: Opening /fsx/HEMCO/SOA/v2014-07/NVOC.geos.1x1.nc
HEMCO: Opening /fsx/HEMCO/GFED4/v2015-10/2016/GFED4_gen.025x025.201601.nc
HEMCO: Opening /fsx/HEMCO/UVALBEDO/v2015-03/uvalbedo.geos.2x25.nc
HEMCO: Opening /fsx/HEMCO/GMI/v2015-02/gmi.clim.ACET.geos5.2x25.nc
HEMCO: Opening /fsx/HEMCO/GMI/v2015-02/gmi.clim.ACTA.geos5.2x25.nc
HEMCO: Opening /fsx/HEMCO/GMI/v2015-02/gmi.clim.ALD2.geos5.2x25.nc
HEMCO: Opening /fsx/HEMCO/GMI/v2015-02/gmi.clim.ALK4.geos5.2x25.nc
HEMCO: Opening /fsx/HEMCO/GMI/v2015-02/gmi.clim.C2H6.geos5.2x25.nc
HEMCO: Opening /fsx/HEMCO/GMI/v2015-02/gmi.clim.C3H8.geos5.2x25.nc
HEMCO: Opening /fsx/HEMCO/GMI/v2015-02/gmi.clim.CCl4.geos5.2x25.nc
HEMCO: Opening /fsx/HEMCO/GMI/v2015-02/gmi.clim.CF2Cl2.geos5.2x25.nc
HEMCO: Opening /fsx/HEMCO/GMI/v2015-02/gmi.clim.CF2ClBr.geos5.2x25.nc
HEMCO: Opening /fsx/HEMCO/GMI/v2015-02/gmi.clim.CFC113.geos5.2x25.nc
HEMCO: Opening /fsx/HEMCO/GMI/v2015-02/gmi.clim.CFC114.geos5.2x25.nc
HEMCO: Opening /fsx/HEMCO/GMI/v2015-02/gmi.clim.CFC115.geos5.2x25.nc
HEMCO: Opening /fsx/HEMCO/GMI/v2015-02/gmi.clim.CFCl3.geos5.2x25.nc
HEMCO: Opening /fsx/HEMCO/GMI/v2015-02/gmi.clim.CH2O.geos5.2x25.nc
HEMCO: Opening /fsx/HEMCO/GMI/v2015-02/gmi.clim.CH3CCl3.geos5.2x25.nc
HEMCO: Opening /fsx/HEMCO/GMI/v2015-02/gmi.clim.CH3Cl.geos5.2x25.nc
HEMCO: Opening /fsx/HEMCO/GMI/v2015-02/gmi.clim.CH4.geos5.2x25.nc
HEMCO: Opening /fsx/HEMCO/GMI/v2015-02/gmi.clim.CO.geos5.2x25.nc
HEMCO: Opening /fsx/HEMCO/GMI/v2015-02/gmi.clim.Cl.geos5.2x25.nc
HEMCO: Opening /fsx/HEMCO/GMI/v2015-02/gmi.clim.Cl2.geos5.2x25.nc
HEMCO: Opening /fsx/HEMCO/GMI/v2015-02/gmi.clim.Cl2O2.geos5.2x25.nc
HEMCO: Opening /fsx/HEMCO/GMI/v2015-02/gmi.clim.ClO.geos5.2x25.nc
HEMCO: Opening /fsx/HEMCO/GMI/v2015-02/gmi.clim.EOH.geos5.2x25.nc
HEMCO: Opening /fsx/HEMCO/GMI/v2015-02/gmi.clim.GLYC.geos5.2x25.nc
HEMCO: Opening /fsx/HEMCO/GMI/v2015-02/gmi.clim.GLYX.geos5.2x25.nc
HEMCO: Opening /fsx/HEMCO/GMI/v2015-02/gmi.clim.H2402.geos5.2x25.nc
HEMCO: Opening /fsx/HEMCO/GMI/v2015-02/gmi.clim.H2O.geos5.2x25.nc
HEMCO: Opening /fsx/HEMCO/GMI/v2015-02/gmi.clim.H2O2.geos5.2x25.nc
HEMCO: Opening /fsx/HEMCO/GMI/v2015-02/gmi.clim.HAC.geos5.2x25.nc
HEMCO: Opening /fsx/HEMCO/GMI/v2015-02/gmi.clim.HCFC141b.geos5.2x25.nc
HEMCO: Opening /fsx/HEMCO/GMI/v2015-02/gmi.clim.HCFC142b.geos5.2x25.nc
HEMCO: Opening /fsx/HEMCO/GMI/v2015-02/gmi.clim.HCFC22.geos5.2x25.nc
HEMCO: Opening /fsx/HEMCO/GMI/v2015-02/gmi.clim.HCOOH.geos5.2x25.20170108.nc
HEMCO: Opening /fsx/HEMCO/GMI/v2015-02/gmi.clim.HCl.geos5.2x25.nc
HEMCO: Opening /fsx/HEMCO/GMI/v2015-02/gmi.clim.HNO2.geos5.2x25.nc
HEMCO: Opening /fsx/HEMCO/GMI/v2015-02/gmi.clim.HNO3.geos5.2x25.nc
HEMCO: Opening /fsx/HEMCO/GMI/v2015-02/gmi.clim.HNO4.geos5.2x25.nc
HEMCO: Opening /fsx/HEMCO/GMI/v2015-02/gmi.clim.HOCl.geos5.2x25.nc
HEMCO: Opening /fsx/HEMCO/GMI/v2015-02/gmi.clim.ISN1.geos5.2x25.nc
HEMCO: Opening /fsx/HEMCO/GMI/v2015-02/gmi.clim.ISOP.geos5.2x25.nc
HEMCO: Opening /fsx/HEMCO/GMI/v2015-02/gmi.clim.MACR.geos5.2x25.nc
HEMCO: Opening /fsx/HEMCO/GMI/v2015-02/gmi.clim.MAP.geos5.2x25.nc
HEMCO: Opening /fsx/HEMCO/GMI/v2015-02/gmi.clim.MEK.geos5.2x25.nc
HEMCO: Opening /fsx/HEMCO/GMI/v2015-02/gmi.clim.MGLY.geos5.2x25.nc
HEMCO: Opening /fsx/HEMCO/GMI/v2015-02/gmi.clim.MP.geos5.2x25.nc
HEMCO: Opening /fsx/HEMCO/GMI/v2015-02/gmi.clim.MVK.geos5.2x25.nc
HEMCO: Opening /fsx/HEMCO/GMI/v2015-02/gmi.clim.N2O.geos5.2x25.nc
HEMCO: Opening /fsx/HEMCO/GMI/v2015-02/gmi.clim.N2O5.geos5.2x25.nc
HEMCO: Opening /fsx/HEMCO/GMI/v2015-02/gmi.clim.NO.geos5.2x25.nc
HEMCO: Opening /fsx/HEMCO/GMI/v2015-02/gmi.clim.NO2.geos5.2x25.nc
HEMCO: Opening /fsx/HEMCO/GMI/v2015-02/gmi.clim.NO3.geos5.2x25.nc
HEMCO: Opening /fsx/HEMCO/GMI/v2015-02/gmi.clim.O3.geos5.2x25.nc
HEMCO: Opening /fsx/HEMCO/GMI/v2015-02/gmi.clim.OClO.geos5.2x25.nc
HEMCO: Opening /fsx/HEMCO/GMI/v2015-02/gmi.clim.PAN.geos5.2x25.nc
HEMCO: Opening /fsx/HEMCO/GMI/v2015-02/gmi.clim.NPMN.geos5.2x25.nc
HEMCO: Opening /fsx/HEMCO/GMI/v2015-02/gmi.clim.IPMN.geos5.2x25.nc
HEMCO: Opening /fsx/HEMCO/GMI/v2015-02/gmi.clim.PPN.geos5.2x25.nc
HEMCO: Opening /fsx/HEMCO/GMI/v2015-02/gmi.clim.PRPE.geos5.2x25.nc
HEMCO: Opening /fsx/HEMCO/GMI/v2015-02/gmi.clim.R4N2.geos5.2x25.nc
HEMCO: Opening /fsx/HEMCO/GMI/v2015-02/gmi.clim.RCHO.geos5.2x25.nc
HEMCO: Opening /fsx/HEMCO/GMI/v2015-02/gmi.clim.RIPA.geos5.2x25.nc
HEMCO: Opening /fsx/HEMCO/GMI/v2015-02/gmi.clim.RIPB.geos5.2x25.nc
HEMCO: Opening /fsx/HEMCO/GMI/v2015-02/gmi.clim.RIPD.geos5.2x25.nc
HEMCO: Opening /fsx/HEMCO/GMI/v2015-02/gmi.clim.OH.geos5.2x25.nc
HEMCO: Opening /fsx/HEMCO/NOAA_GMD/v2018-01/monthly.gridded.surface.methane.1979-2020.1x1.nc
HEMCO: Opening /fsx/HEMCO/GEIA/v2014-07/GEIA_monthscal.generic.1x1.nc
HEMCO: Opening /fsx/HEMCO/EMEP/v2015-03/EMEP.Seasonal.geos.1x1.nc
HEMCO: Opening /fsx/HEMCO/BROMINE/v2015-02/BromoCarb_Season.nc
HEMCO: Opening /fsx/HEMCO/EDGARv43/v2016-11/EDGAR_v43.Seasonal.1x1.nc
HEMCO: Opening /fsx/HEMCO/NEI2005/v2014-09/scaling/NEI99.dow.geos.1x1.nc
HEMCO: Opening /fsx/HEMCO/VOLCANO/v2015-02/2009/volc_so2_gen.1x1.47L.200901.nc
HEMCO: Opening /fsx/HEMCO/SOILNOX/v2014-07/soilNOx.fert_res.generic.05x05.nc
 vdinti: pbl height will be limited to bottom           25  model levels. top is
     431.250100000000       hpa
 =================================================
 W R F - G C   T I M E R S
    Domain           1 (Units: s)
 =================================================
  => Coupler Component                       0.052
   -- Physics & Parameterization             0.010
   -- Diagnostics Out                        0.000
  => GEOS-Chem Column                      150.825
  ===> Total Chemistry                     150.876
  => WRF                                    17.440
  ===> Total WRF-GC                        168.317
 max optd  4.0020485E+33
 max taucldi  6.9332668E-07
 max taucldw  1.9558522E-04
 Switching is not necessary as we are already
 in the right domain!
 GIGC_Chunk_Run: Running for in-PET grid #           1
 GIGC_Chunk_Run: Received new grid IM, JM, LM =          15           9
          49
 =================================================
 W R F - G C   T I M E R S
    Domain           1 (Units: s)
 =================================================
  => Coupler Component                       0.085
   -- Physics & Parameterization             0.020
   -- Diagnostics Out                        0.000
  => GEOS-Chem Column                      152.024
  ===> Total Chemistry                     152.110
  => WRF                                    40.215
  ===> Total WRF-GC                        192.325
 max optd  4.0020485E+33
 max taucldi  1.5342443E-06
 max taucldw  2.9505906E-04
 Switching is not necessary as we are already
 in the right domain!
 GIGC_Chunk_Run: Running for in-PET grid #           1
 GIGC_Chunk_Run: Received new grid IM, JM, LM =          15           9
          49
 =================================================
 W R F - G C   T I M E R S
    Domain           1 (Units: s)
 =================================================
  => Coupler Component                       0.116
   -- Physics & Parameterization             0.030
   -- Diagnostics Out                        0.000
  => GEOS-Chem Column                      153.129
  ===> Total Chemistry                     153.245
  => WRF                                    60.863
  ===> Total WRF-GC                        214.109
 max optd  4.0020485E+33
 max taucldi  2.8150912E-06
 max taucldw  4.0894010E-04
 Switching is not necessary as we are already
 in the right domain!
 GIGC_Chunk_Run: Running for in-PET grid #           1
 GIGC_Chunk_Run: Received new grid IM, JM, LM =          15           9
          49
 =================================================
 W R F - G C   T I M E R S
    Domain           1 (Units: s)
 =================================================
  => Coupler Component                       0.147
   -- Physics & Parameterization             0.040
   -- Diagnostics Out                        0.000
  => GEOS-Chem Column                      154.189
  ===> Total Chemistry                     154.336
  => WRF                                    79.846
  ===> Total WRF-GC                        234.181
 max optd  4.0020485E+33
 max taucldi  4.3105788E-06
 max taucldw  5.1113043E-04
 Switching is not necessary as we are already
 in the right domain!
 GIGC_Chunk_Run: Running for in-PET grid #           1
 GIGC_Chunk_Run: Received new grid IM, JM, LM =          15           9
          49
 =================================================
 W R F - G C   T I M E R S
    Domain           1 (Units: s)
 =================================================
  => Coupler Component                       0.177
   -- Physics & Parameterization             0.049
   -- Diagnostics Out                        0.000
  => GEOS-Chem Column                      155.238
  ===> Total Chemistry                     155.416
  => WRF                                    98.422
  ===> Total WRF-GC                        253.838
 max optd  4.0020485E+33
 max taucldi  5.8591668E-06
 max taucldw  5.9177505E-04
 Switching is not necessary as we are already
 in the right domain!
 GIGC_Chunk_Run: Running for in-PET grid #           1
 GIGC_Chunk_Run: Received new grid IM, JM, LM =          15           9
          49
 =================================================
 W R F - G C   T I M E R S
    Domain           1 (Units: s)
 =================================================
  => Coupler Component                       0.207
   -- Physics & Parameterization             0.059
   -- Diagnostics Out                        0.000
  => GEOS-Chem Column                      156.301
  ===> Total Chemistry                     156.508
  => WRF                                   116.884
  ===> Total WRF-GC                        273.392
 max optd  4.0020485E+33
 max taucldi  7.4693457E-06
 max taucldw  6.6258182E-04
 Switching is not necessary as we are already
 in the right domain!
 GIGC_Chunk_Run: Running for in-PET grid #           1
 GIGC_Chunk_Run: Received new grid IM, JM, LM =          15           9
          49
 =================================================
 W R F - G C   T I M E R S
    Domain           1 (Units: s)
 =================================================
  => Coupler Component                       0.236
   -- Physics & Parameterization             0.069
   -- Diagnostics Out                        0.000
  => GEOS-Chem Column                      157.344
  ===> Total Chemistry                     157.581
  => WRF                                   135.323
  ===> Total WRF-GC                        292.904
 max optd  4.0020485E+33
 max taucldi  9.0845142E-06
 max taucldw  7.2260277E-04
 Switching is not necessary as we are already
 in the right domain!
 GIGC_Chunk_Run: Running for in-PET grid #           1
 GIGC_Chunk_Run: Received new grid IM, JM, LM =          15           9
          49
 =================================================
 W R F - G C   T I M E R S
    Domain           1 (Units: s)
 =================================================
  => Coupler Component                       0.268
   -- Physics & Parameterization             0.079
   -- Diagnostics Out                        0.000
  => GEOS-Chem Column                      158.391
  ===> Total Chemistry                     158.659
  => WRF                                   153.717
  ===> Total WRF-GC                        312.376
 max optd  4.0020485E+33
 max taucldi  1.0690661E-05
 max taucldw  7.7444199E-04
 Switching is not necessary as we are already
 in the right domain!
 GIGC_Chunk_Run: Running for in-PET grid #           1
 GIGC_Chunk_Run: Received new grid IM, JM, LM =          15           9
          49
 =================================================
 W R F - G C   T I M E R S
    Domain           1 (Units: s)
 =================================================
  => Coupler Component                       0.302
   -- Physics & Parameterization             0.089
   -- Diagnostics Out                        0.000
  => GEOS-Chem Column                      159.424
  ===> Total Chemistry                     159.726
  => WRF                                   172.101
  ===> Total WRF-GC                        331.826
 max optd  4.0020485E+33
 max taucldi  1.2216465E-05
 max taucldw  8.1604643E-04
 Switching is not necessary as we are already
 in the right domain!
 GIGC_Chunk_Run: Running for in-PET grid #           1
 GIGC_Chunk_Run: Received new grid IM, JM, LM =          15           9
          49
 =================================================
 W R F - G C   T I M E R S
    Domain           1 (Units: s)
 =================================================
  => Coupler Component                       0.335
   -- Physics & Parameterization             0.098
   -- Diagnostics Out                        0.000
  => GEOS-Chem Column                      160.472
  ===> Total Chemistry                     160.807
  => WRF                                   190.564
  ===> Total WRF-GC                        351.371
 max optd  4.0020485E+33
 max taucldi  1.3662197E-05
 max taucldw  8.5054536E-04
 Switching is not necessary as we are already
 in the right domain!
 GIGC_Chunk_Run: Running for in-PET grid #           1
 GIGC_Chunk_Run: Received new grid IM, JM, LM =          15           9
          49
 =================================================
 W R F - G C   T I M E R S
    Domain           1 (Units: s)
 =================================================
  => Coupler Component                       0.370
   -- Physics & Parameterization             0.109
   -- Diagnostics Out                        0.000
  => GEOS-Chem Column                      161.503
  ===> Total Chemistry                     161.873
  => WRF                                   208.923
  ===> Total WRF-GC                        370.796
 max optd  4.0020485E+33
 max taucldi  1.4921024E-05
 max taucldw  8.7394495E-04
 Switching is not necessary as we are already
 in the right domain!
 GIGC_Chunk_Run: Running for in-PET grid #           1
 GIGC_Chunk_Run: Received new grid IM, JM, LM =          15           9
          49
 =================================================
 W R F - G C   T I M E R S
    Domain           1 (Units: s)
 =================================================
  => Coupler Component                       0.402
   -- Physics & Parameterization             0.118
   -- Diagnostics Out                        0.000
  => GEOS-Chem Column                      162.547
  ===> Total Chemistry                     162.949
  => WRF                                   227.189
  ===> Total WRF-GC                        390.138
 HOURLY EMISSIONS UPDATE TIME     3600.0       0.0
mediation_integrate: med_read_wrf_chem_emissions: Read emissions for time 2018-01-01_01:00:00
 max optd  4.0020485E+33
 max taucldi  1.5841377E-05
 max taucldw  8.7999064E-04
 Switching is not necessary as we are already
 in the right domain!
 GIGC_Chunk_Run: Running for in-PET grid #           1
 GIGC_Chunk_Run: Received new grid IM, JM, LM =          15           9
          49
 =================================================
 W R F - G C   T I M E R S
    Domain           1 (Units: s)
 =================================================
  => Coupler Component                       0.436
   -- Physics & Parameterization             0.128
   -- Diagnostics Out                        0.000
  => GEOS-Chem Column                      163.588
  ===> Total Chemistry                     164.024
  => WRF                                   245.522
  ===> Total WRF-GC                        409.546
 max optd  4.0020485E+33
 max taucldi  1.6526248E-05
 max taucldw  8.7902235E-04
 Switching is not necessary as we are already
 in the right domain!
 GIGC_Chunk_Run: Running for in-PET grid #           1
 GIGC_Chunk_Run: Received new grid IM, JM, LM =          15           9
          49
 =================================================
 W R F - G C   T I M E R S
    Domain           1 (Units: s)
 =================================================
  => Coupler Component                       0.470
   -- Physics & Parameterization             0.138
   -- Diagnostics Out                        0.000
  => GEOS-Chem Column                      164.640
  ===> Total Chemistry                     165.110
  => WRF                                   263.847
  ===> Total WRF-GC                        428.957
 max optd  4.0020485E+33
 max taucldi  1.7103364E-05
 max taucldw  8.8922889E-04
 Switching is not necessary as we are already
 in the right domain!
 GIGC_Chunk_Run: Running for in-PET grid #           1
 GIGC_Chunk_Run: Received new grid IM, JM, LM =          15           9
          49
 =================================================
 W R F - G C   T I M E R S
    Domain           1 (Units: s)
 =================================================
  => Coupler Component                       0.508
   -- Physics & Parameterization             0.147
   -- Diagnostics Out                        0.000
  => GEOS-Chem Column                      165.680
  ===> Total Chemistry                     166.188
  => WRF                                   282.047
  ===> Total WRF-GC                        448.235
 max optd  4.0020485E+33
 max taucldi  1.7867875E-05
 max taucldw  8.9978648E-04
 Switching is not necessary as we are already
 in the right domain!
 GIGC_Chunk_Run: Running for in-PET grid #           1
 GIGC_Chunk_Run: Received new grid IM, JM, LM =          15           9
          49
 =================================================
 W R F - G C   T I M E R S
    Domain           1 (Units: s)
 =================================================
  => Coupler Component                       0.544
   -- Physics & Parameterization             0.157
   -- Diagnostics Out                        0.000
  => GEOS-Chem Column                      166.701
  ===> Total Chemistry                     167.245
  => WRF                                   300.326
  ===> Total WRF-GC                        467.572
 max optd  4.0020485E+33
 max taucldi  1.8174360E-05
 max taucldw  8.9216058E-04
 Switching is not necessary as we are already
 in the right domain!
 GIGC_Chunk_Run: Running for in-PET grid #           1
 GIGC_Chunk_Run: Received new grid IM, JM, LM =          15           9
          49
 =================================================
 W R F - G C   T I M E R S
    Domain           1 (Units: s)
 =================================================
  => Coupler Component                       0.581
   -- Physics & Parameterization             0.167
   -- Diagnostics Out                        0.000
  => GEOS-Chem Column                      167.757
  ===> Total Chemistry                     168.338
  => WRF                                   318.589
  ===> Total WRF-GC                        486.927
 max optd  4.0020485E+33
 max taucldi  1.8040560E-05
 max taucldw  8.7045890E-04
 Switching is not necessary as we are already
 in the right domain!
 GIGC_Chunk_Run: Running for in-PET grid #           1
 GIGC_Chunk_Run: Received new grid IM, JM, LM =          15           9
          49
 =================================================
 W R F - G C   T I M E R S
    Domain           1 (Units: s)
 =================================================
  => Coupler Component                       0.617
   -- Physics & Parameterization             0.176
   -- Diagnostics Out                        0.000
  => GEOS-Chem Column                      168.823
  ===> Total Chemistry                     169.441
  => WRF                                   336.786
  ===> Total WRF-GC                        506.227
 max optd  4.0020485E+33
 max taucldi  1.7484123E-05
 max taucldw  8.3507644E-04
 Switching is not necessary as we are already
 in the right domain!
 GIGC_Chunk_Run: Running for in-PET grid #           1
 GIGC_Chunk_Run: Received new grid IM, JM, LM =          15           9
          49
 =================================================
 W R F - G C   T I M E R S
    Domain           1 (Units: s)
 =================================================
  => Coupler Component                       0.653
   -- Physics & Parameterization             0.187
   -- Diagnostics Out                        0.000
  => GEOS-Chem Column                      169.890
  ===> Total Chemistry                     170.543
  => WRF                                   355.017
  ===> Total WRF-GC                        525.560
 max optd  4.0020485E+33
 max taucldi  1.7568465E-05
 max taucldw  7.8664906E-04
 Switching is not necessary as we are already
 in the right domain!
 GIGC_Chunk_Run: Running for in-PET grid #           1
 GIGC_Chunk_Run: Received new grid IM, JM, LM =          15           9
          49
 =================================================
 W R F - G C   T I M E R S
    Domain           1 (Units: s)
 =================================================
  => Coupler Component                       0.688
   -- Physics & Parameterization             0.197
   -- Diagnostics Out                        0.000
  => GEOS-Chem Column                      170.948
  ===> Total Chemistry                     171.635
  => WRF                                   373.365
  ===> Total WRF-GC                        545.000
 max optd  4.0020485E+33
 max taucldi  1.7370978E-05
 max taucldw  7.2531443E-04
 Switching is not necessary as we are already
 in the right domain!
 GIGC_Chunk_Run: Running for in-PET grid #           1
 GIGC_Chunk_Run: Received new grid IM, JM, LM =          15           9
          49
 =================================================
 W R F - G C   T I M E R S
    Domain           1 (Units: s)
 =================================================
  => Coupler Component                       0.722
   -- Physics & Parameterization             0.207
   -- Diagnostics Out                        0.000
  => GEOS-Chem Column                      172.015
  ===> Total Chemistry                     172.736
  => WRF                                   391.460
  ===> Total WRF-GC                        564.196
 max optd  4.0020485E+33
 max taucldi  1.8137573E-05
 max taucldw  6.7223288E-04
 Switching is not necessary as we are already
 in the right domain!
 GIGC_Chunk_Run: Running for in-PET grid #           1
 GIGC_Chunk_Run: Received new grid IM, JM, LM =          15           9
          49
 =================================================
 W R F - G C   T I M E R S
    Domain           1 (Units: s)
 =================================================
  => Coupler Component                       0.758
   -- Physics & Parameterization             0.216
   -- Diagnostics Out                        0.000
  => GEOS-Chem Column                      173.073
  ===> Total Chemistry                     173.831
  => WRF                                   409.628
  ===> Total WRF-GC                        583.460
 max optd  4.0020485E+33
 max taucldi  2.0072141E-05
 max taucldw  6.4429658E-04
 Switching is not necessary as we are already
 in the right domain!
 GIGC_Chunk_Run: Running for in-PET grid #           1
 GIGC_Chunk_Run: Received new grid IM, JM, LM =          15           9
          49
 =================================================
 W R F - G C   T I M E R S
    Domain           1 (Units: s)
 =================================================
  => Coupler Component                       0.793
   -- Physics & Parameterization             0.226
   -- Diagnostics Out                        0.000
  => GEOS-Chem Column                      174.133
  ===> Total Chemistry                     174.926
  => WRF                                   427.913
  ===> Total WRF-GC                        602.839
 max optd  4.0020485E+33
 max taucldi  2.1847563E-05
 max taucldw  6.2238675E-04
 Switching is not necessary as we are already
 in the right domain!
 GIGC_Chunk_Run: Running for in-PET grid #           1
 GIGC_Chunk_Run: Received new grid IM, JM, LM =          15           9
          49
 =================================================
 W R F - G C   T I M E R S
    Domain           1 (Units: s)
 =================================================
  => Coupler Component                       0.828
   -- Physics & Parameterization             0.235
   -- Diagnostics Out                        0.000
  => GEOS-Chem Column                      175.198
  ===> Total Chemistry                     176.026
  => WRF                                   446.085
  ===> Total WRF-GC                        622.111
 HOURLY EMISSIONS UPDATE TIME     7200.0       0.0
mediation_integrate: med_read_wrf_chem_emissions: Read emissions for time 2018-01-01_02:00:00
 max optd  4.0020485E+33
 max taucldi  2.3377110E-05
 max taucldw  6.1018317E-04
 Switching is not necessary as we are already
 in the right domain!
 GIGC_Chunk_Run: Running for in-PET grid #           1
 GIGC_Chunk_Run: Received new grid IM, JM, LM =          15           9
          49
 =================================================
 W R F - G C   T I M E R S
    Domain           1 (Units: s)
 =================================================
  => Coupler Component                       0.863
   -- Physics & Parameterization             0.245
   -- Diagnostics Out                        0.000
  => GEOS-Chem Column                      176.260
  ===> Total Chemistry                     177.123
  => WRF                                   464.284
  ===> Total WRF-GC                        641.407
 max optd  4.0020485E+33
 max taucldi  2.4589095E-05
 max taucldw  6.2095915E-04
 Switching is not necessary as we are already
 in the right domain!
 GIGC_Chunk_Run: Running for in-PET grid #           1
 GIGC_Chunk_Run: Received new grid IM, JM, LM =          15           9
          49
 =================================================
 W R F - G C   T I M E R S
    Domain           1 (Units: s)
 =================================================
  => Coupler Component                       0.901
   -- Physics & Parameterization             0.255
   -- Diagnostics Out                        0.000
  => GEOS-Chem Column                      177.314
  ===> Total Chemistry                     178.215
  => WRF                                   482.498
  ===> Total WRF-GC                        660.713
 max optd  4.0020485E+33
 max taucldi  2.5514237E-05
 max taucldw  6.3924864E-04
 Switching is not necessary as we are already
 in the right domain!
 GIGC_Chunk_Run: Running for in-PET grid #           1
 GIGC_Chunk_Run: Received new grid IM, JM, LM =          15           9
          49
 =================================================
 W R F - G C   T I M E R S
    Domain           1 (Units: s)
 =================================================
  => Coupler Component                       0.938
   -- Physics & Parameterization             0.264
   -- Diagnostics Out                        0.000
  => GEOS-Chem Column                      178.356
  ===> Total Chemistry                     179.294
  => WRF                                   500.622
  ===> Total WRF-GC                        679.917
 max optd  4.0020485E+33
 max taucldi  2.6269123E-05
 max taucldw  6.6040503E-04
 Switching is not necessary as we are already
 in the right domain!
 GIGC_Chunk_Run: Running for in-PET grid #           1
 GIGC_Chunk_Run: Received new grid IM, JM, LM =          15           9
          49
 =================================================
 W R F - G C   T I M E R S
    Domain           1 (Units: s)
 =================================================
  => Coupler Component                       0.972
   -- Physics & Parameterization             0.274
   -- Diagnostics Out                        0.000
  => GEOS-Chem Column                      179.436
  ===> Total Chemistry                     180.407
  => WRF                                   518.737
  ===> Total WRF-GC                        699.144
 max optd  4.0020485E+33
 max taucldi  2.7020746E-05
 max taucldw  6.8357406E-04
 Switching is not necessary as we are already
 in the right domain!
 GIGC_Chunk_Run: Running for in-PET grid #           1
 GIGC_Chunk_Run: Received new grid IM, JM, LM =          15           9
          49
 =================================================
 W R F - G C   T I M E R S
    Domain           1 (Units: s)
 =================================================
  => Coupler Component                       1.007
   -- Physics & Parameterization             0.284
   -- Diagnostics Out                        0.000
  => GEOS-Chem Column                      180.502
  ===> Total Chemistry                     181.509
  => WRF                                   536.856
  ===> Total WRF-GC                        718.365
 max optd  4.0020485E+33
 max taucldi  2.8013070E-05
 max taucldw  7.0457481E-04
 Switching is not necessary as we are already
 in the right domain!
 GIGC_Chunk_Run: Running for in-PET grid #           1
 GIGC_Chunk_Run: Received new grid IM, JM, LM =          15           9
          49
 =================================================
 W R F - G C   T I M E R S
    Domain           1 (Units: s)
 =================================================
  => Coupler Component                       1.044
   -- Physics & Parameterization             0.294
   -- Diagnostics Out                        0.000
  => GEOS-Chem Column                      181.571
  ===> Total Chemistry                     182.615
  => WRF                                   554.975
  ===> Total WRF-GC                        737.590
 max optd  4.0020485E+33
 max taucldi  2.9342957E-05
 max taucldw  7.1926072E-04
 Switching is not necessary as we are already
 in the right domain!
 GIGC_Chunk_Run: Running for in-PET grid #           1
 GIGC_Chunk_Run: Received new grid IM, JM, LM =          15           9
          49
 =================================================
 W R F - G C   T I M E R S
    Domain           1 (Units: s)
 =================================================
  => Coupler Component                       1.080
   -- Physics & Parameterization             0.304
   -- Diagnostics Out                        0.000
  => GEOS-Chem Column                      182.633
  ===> Total Chemistry                     183.713
  => WRF                                   573.105
  ===> Total WRF-GC                        756.818
 max optd  4.0020485E+33
 max taucldi  3.0371129E-05
 max taucldw  7.3070836E-04
 Switching is not necessary as we are already
 in the right domain!
 GIGC_Chunk_Run: Running for in-PET grid #           1
 GIGC_Chunk_Run: Received new grid IM, JM, LM =          15           9
          49
 =================================================
 W R F - G C   T I M E R S
    Domain           1 (Units: s)
 =================================================
  => Coupler Component                       1.115
   -- Physics & Parameterization             0.313
   -- Diagnostics Out                        0.000
  => GEOS-Chem Column                      183.696
  ===> Total Chemistry                     184.811
  => WRF                                   591.183
  ===> Total WRF-GC                        775.994
 max optd  4.0020485E+33
 max taucldi  3.1095289E-05
 max taucldw  7.3811581E-04
 Switching is not necessary as we are already
 in the right domain!
 GIGC_Chunk_Run: Running for in-PET grid #           1
 GIGC_Chunk_Run: Received new grid IM, JM, LM =          15           9
          49
 =================================================
 W R F - G C   T I M E R S
    Domain           1 (Units: s)
 =================================================
  => Coupler Component                       1.152
   -- Physics & Parameterization             0.323
   -- Diagnostics Out                        0.000
  => GEOS-Chem Column                      184.763
  ===> Total Chemistry                     185.914
  => WRF                                   609.278
  ===> Total WRF-GC                        795.192
 max optd  4.0020485E+33
 max taucldi  3.1591644E-05
 max taucldw  7.4273889E-04
 Switching is not necessary as we are already
 in the right domain!
 GIGC_Chunk_Run: Running for in-PET grid #           1
 GIGC_Chunk_Run: Received new grid IM, JM, LM =          15           9
          49
 =================================================
 W R F - G C   T I M E R S
    Domain           1 (Units: s)
 =================================================
  => Coupler Component                       1.188
   -- Physics & Parameterization             0.333
   -- Diagnostics Out                        0.000
  => GEOS-Chem Column                      185.828
  ===> Total Chemistry                     187.016
  => WRF                                   627.415
  ===> Total WRF-GC                        814.432
 max optd  4.0020485E+33
 max taucldi  3.1945383E-05
 max taucldw  7.4626785E-04
 Switching is not necessary as we are already
 in the right domain!
 GIGC_Chunk_Run: Running for in-PET grid #           1
 GIGC_Chunk_Run: Received new grid IM, JM, LM =          15           9
          49
 =================================================
 W R F - G C   T I M E R S
    Domain           1 (Units: s)
 =================================================
  => Coupler Component                       1.223
   -- Physics & Parameterization             0.342
   -- Diagnostics Out                        0.000
  => GEOS-Chem Column                      186.901
  ===> Total Chemistry                     188.123
  => WRF                                   645.461
  ===> Total WRF-GC                        833.584
 max optd  4.0020485E+33
 max taucldi  3.3212367E-05
 max taucldw  7.4489549E-04
 Switching is not necessary as we are already
 in the right domain!
 GIGC_Chunk_Run: Running for in-PET grid #           1
 GIGC_Chunk_Run: Received new grid IM, JM, LM =          15           9
          49
 =================================================
 W R F - G C   T I M E R S
    Domain           1 (Units: s)
 =================================================
  => Coupler Component                       1.259
   -- Physics & Parameterization             0.352
   -- Diagnostics Out                        0.000
  => GEOS-Chem Column                      187.970
  ===> Total Chemistry                     189.229
  => WRF                                   663.523
  ===> Total WRF-GC                        852.751
 HOURLY EMISSIONS UPDATE TIME    10800.0       0.0
mediation_integrate: med_read_wrf_chem_emissions: Read emissions for time 2018-01-01_03:00:00
 max optd  4.0020485E+33
 max taucldi  3.4795761E-05
 max taucldw  7.4250676E-04
 Switching is not necessary as we are already
 in the right domain!
 GIGC_Chunk_Run: Running for in-PET grid #           1
 GIGC_Chunk_Run: Received new grid IM, JM, LM =          15           9
          49
 =================================================
 W R F - G C   T I M E R S
    Domain           1 (Units: s)
 =================================================
  => Coupler Component                       1.293
   -- Physics & Parameterization             0.362
   -- Diagnostics Out                        0.000
  => GEOS-Chem Column                      189.044
  ===> Total Chemistry                     190.337
  => WRF                                   681.642
  ===> Total WRF-GC                        871.979
 max optd  4.0020485E+33
 max taucldi  3.6390589E-05
 max taucldw  7.4018090E-04
 Switching is not necessary as we are already
 in the right domain!
 GIGC_Chunk_Run: Running for in-PET grid #           1
 GIGC_Chunk_Run: Received new grid IM, JM, LM =          15           9
          49
 =================================================
 W R F - G C   T I M E R S
    Domain           1 (Units: s)
 =================================================
  => Coupler Component                       1.328
   -- Physics & Parameterization             0.372
   -- Diagnostics Out                        0.000
  => GEOS-Chem Column                      190.113
  ===> Total Chemistry                     191.441
  => WRF                                   699.711
  ===> Total WRF-GC                        891.153
 max optd  4.0020485E+33
 max taucldi  3.7885064E-05
 max taucldw  7.3902507E-04
 Switching is not necessary as we are already
 in the right domain!
 GIGC_Chunk_Run: Running for in-PET grid #           1
 GIGC_Chunk_Run: Received new grid IM, JM, LM =          15           9
          49
 =================================================
 W R F - G C   T I M E R S
    Domain           1 (Units: s)
 =================================================
  => Coupler Component                       1.364
   -- Physics & Parameterization             0.381
   -- Diagnostics Out                        0.000
  => GEOS-Chem Column                      191.185
  ===> Total Chemistry                     192.549
  => WRF                                   717.803
  ===> Total WRF-GC                        910.353
 max optd  4.0020485E+33
 max taucldi  3.9153016E-05
 max taucldw  7.4041553E-04
 Switching is not necessary as we are already
 in the right domain!
 GIGC_Chunk_Run: Running for in-PET grid #           1
 GIGC_Chunk_Run: Received new grid IM, JM, LM =          15           9
          49
 =================================================
 W R F - G C   T I M E R S
    Domain           1 (Units: s)
 =================================================
  => Coupler Component                       1.399
   -- Physics & Parameterization             0.391
   -- Diagnostics Out                        0.000
  => GEOS-Chem Column                      192.259
  ===> Total Chemistry                     193.658
  => WRF                                   735.873
  ===> Total WRF-GC                        929.531
 max optd  4.0020485E+33
 max taucldi  4.0143444E-05
 max taucldw  7.4391585E-04
 Switching is not necessary as we are already
 in the right domain!
 GIGC_Chunk_Run: Running for in-PET grid #           1
 GIGC_Chunk_Run: Received new grid IM, JM, LM =          15           9
          49
 =================================================
 W R F - G C   T I M E R S
    Domain           1 (Units: s)
 =================================================
  => Coupler Component                       1.435
   -- Physics & Parameterization             0.401
   -- Diagnostics Out                        0.000
  => GEOS-Chem Column                      193.321
  ===> Total Chemistry                     194.756
  => WRF                                   753.916
  ===> Total WRF-GC                        948.672
 max optd  4.0020485E+33
 max taucldi  4.0887422E-05
 max taucldw  7.4865785E-04
 Switching is not necessary as we are already
 in the right domain!
 GIGC_Chunk_Run: Running for in-PET grid #           1
 GIGC_Chunk_Run: Received new grid IM, JM, LM =          15           9
          49
 =================================================
 W R F - G C   T I M E R S
    Domain           1 (Units: s)
 =================================================
  => Coupler Component                       1.473
   -- Physics & Parameterization             0.411
   -- Diagnostics Out                        0.000
  => GEOS-Chem Column                      194.387
  ===> Total Chemistry                     195.860
  => WRF                                   772.258
  ===> Total WRF-GC                        968.118
 max optd  4.0020485E+33
 max taucldi  4.3160981E-05
 max taucldw  7.5358170E-04
 Switching is not necessary as we are already
 in the right domain!
 GIGC_Chunk_Run: Running for in-PET grid #           1
 GIGC_Chunk_Run: Received new grid IM, JM, LM =          15           9
          49
 =================================================
 W R F - G C   T I M E R S
    Domain           1 (Units: s)
 =================================================
  => Coupler Component                       1.510
   -- Physics & Parameterization             0.422
   -- Diagnostics Out                        0.000
  => GEOS-Chem Column                      195.454
  ===> Total Chemistry                     196.964
  => WRF                                   790.420
  ===> Total WRF-GC                        987.385
 max optd  4.0020485E+33
 max taucldi  4.6181682E-05
 max taucldw  7.5744570E-04
 Switching is not necessary as we are already
 in the right domain!
 GIGC_Chunk_Run: Running for in-PET grid #           1
 GIGC_Chunk_Run: Received new grid IM, JM, LM =          15           9
          49
 =================================================
 W R F - G C   T I M E R S
    Domain           1 (Units: s)
 =================================================
  => Coupler Component                       1.546
   -- Physics & Parameterization             0.431
   -- Diagnostics Out                        0.000
  => GEOS-Chem Column                      196.524
  ===> Total Chemistry                     198.070
  => WRF                                   808.434
  ===> Total WRF-GC                       1006.504
 max optd  4.0020485E+33
 max taucldi  4.9154714E-05
 max taucldw  7.5906160E-04
 Switching is not necessary as we are already
 in the right domain!
 GIGC_Chunk_Run: Running for in-PET grid #           1
 GIGC_Chunk_Run: Received new grid IM, JM, LM =          15           9
          49
 =================================================
 W R F - G C   T I M E R S
    Domain           1 (Units: s)
 =================================================
  => Coupler Component                       1.583
   -- Physics & Parameterization             0.441
   -- Diagnostics Out                        0.000
  => GEOS-Chem Column                      197.580
  ===> Total Chemistry                     199.164
  => WRF                                   826.639
  ===> Total WRF-GC                       1025.803
 max optd  4.0020485E+33
 max taucldi  5.1975298E-05
 max taucldw  7.5999968E-04
 Switching is not necessary as we are already
 in the right domain!
 GIGC_Chunk_Run: Running for in-PET grid #           1
 GIGC_Chunk_Run: Received new grid IM, JM, LM =          15           9
          49
 =================================================
 W R F - G C   T I M E R S
    Domain           1 (Units: s)
 =================================================
  => Coupler Component                       1.619
   -- Physics & Parameterization             0.451
   -- Diagnostics Out                        0.000
  => GEOS-Chem Column                      198.640
  ===> Total Chemistry                     200.259
  => WRF                                   844.773
  ===> Total WRF-GC                       1045.032
 max optd  4.0020485E+33
 max taucldi  5.4539058E-05
 max taucldw  7.6195993E-04
 Switching is not necessary as we are already
 in the right domain!
 GIGC_Chunk_Run: Running for in-PET grid #           1
 GIGC_Chunk_Run: Received new grid IM, JM, LM =          15           9
          49
 =================================================
 W R F - G C   T I M E R S
    Domain           1 (Units: s)
 =================================================
  => Coupler Component                       1.656
   -- Physics & Parameterization             0.461
   -- Diagnostics Out                        0.000
  => GEOS-Chem Column                      199.709
  ===> Total Chemistry                     201.365
  => WRF                                   862.864
  ===> Total WRF-GC                       1064.229
 max optd  4.0020485E+33
 max taucldi  5.6769150E-05
 max taucldw  7.6213741E-04
 Switching is not necessary as we are already
 in the right domain!
 GIGC_Chunk_Run: Running for in-PET grid #           1
 GIGC_Chunk_Run: Received new grid IM, JM, LM =          15           9
          49
 =================================================
 W R F - G C   T I M E R S
    Domain           1 (Units: s)
 =================================================
  => Coupler Component                       1.693
   -- Physics & Parameterization             0.470
   -- Diagnostics Out                        0.000
  => GEOS-Chem Column                      200.764
  ===> Total Chemistry                     202.457
  => WRF                                   880.997
  ===> Total WRF-GC                       1083.454
 HOURLY EMISSIONS UPDATE TIME    14400.0       0.0
mediation_integrate: med_read_wrf_chem_emissions: Read emissions for time 2018-01-01_04:00:00
 max optd  4.0020485E+33
 max taucldi  5.8676458E-05
 max taucldw  7.6082011E-04
 Switching is not necessary as we are already
 in the right domain!
 GIGC_Chunk_Run: Running for in-PET grid #           1
 GIGC_Chunk_Run: Received new grid IM, JM, LM =          15           9
          49
 =================================================
 W R F - G C   T I M E R S
    Domain           1 (Units: s)
 =================================================
  => Coupler Component                       1.730
   -- Physics & Parameterization             0.480
   -- Diagnostics Out                        0.000
  => GEOS-Chem Column                      201.824
  ===> Total Chemistry                     203.554
  => WRF                                   899.135
  ===> Total WRF-GC                       1102.688
 max optd  4.0020485E+33
 max taucldi  6.0145456E-05
 max taucldw  7.5538788E-04
 Switching is not necessary as we are already
 in the right domain!
 GIGC_Chunk_Run: Running for in-PET grid #           1
 GIGC_Chunk_Run: Received new grid IM, JM, LM =          15           9
          49
 =================================================
 W R F - G C   T I M E R S
    Domain           1 (Units: s)
 =================================================
  => Coupler Component                       1.766
   -- Physics & Parameterization             0.490
   -- Diagnostics Out                        0.000
  => GEOS-Chem Column                      202.891
  ===> Total Chemistry                     204.657
  => WRF                                   917.269
  ===> Total WRF-GC                       1121.926
 max optd  4.0020485E+33
 max taucldi  6.0936152E-05
 max taucldw  7.4888545E-04
 Switching is not necessary as we are already
 in the right domain!
 GIGC_Chunk_Run: Running for in-PET grid #           1
 GIGC_Chunk_Run: Received new grid IM, JM, LM =          15           9
          49
 =================================================
 W R F - G C   T I M E R S
    Domain           1 (Units: s)
 =================================================
  => Coupler Component                       1.803
   -- Physics & Parameterization             0.499
   -- Diagnostics Out                        0.000
  => GEOS-Chem Column                      203.960
  ===> Total Chemistry                     205.764
  => WRF                                   935.472
  ===> Total WRF-GC                       1141.236
 max optd  4.0020485E+33
 max taucldi  6.0802198E-05
 max taucldw  7.3724712E-04
 Switching is not necessary as we are already
 in the right domain!
 GIGC_Chunk_Run: Running for in-PET grid #           1
 GIGC_Chunk_Run: Received new grid IM, JM, LM =          15           9
          49
 =================================================
 W R F - G C   T I M E R S
    Domain           1 (Units: s)
 =================================================
  => Coupler Component                       1.839
   -- Physics & Parameterization             0.509
   -- Diagnostics Out                        0.000
  => GEOS-Chem Column                      205.021
  ===> Total Chemistry                     206.859
  => WRF                                   953.571
  ===> Total WRF-GC                       1160.431
 max optd  4.0020485E+33
 max taucldi  6.1037885E-05
 max taucldw  7.3103904E-04
 Switching is not necessary as we are already
 in the right domain!
 GIGC_Chunk_Run: Running for in-PET grid #           1
 GIGC_Chunk_Run: Received new grid IM, JM, LM =          15           9
          49
 =================================================
 W R F - G C   T I M E R S
    Domain           1 (Units: s)
 =================================================
  => Coupler Component                       1.877
   -- Physics & Parameterization             0.519
   -- Diagnostics Out                        0.000
  => GEOS-Chem Column                      206.082
  ===> Total Chemistry                     207.959
  => WRF                                   971.720
  ===> Total WRF-GC                       1179.679
 max optd  4.0020485E+33
 max taucldi  6.0852803E-05
 max taucldw  7.3432346E-04
 Switching is not necessary as we are already
 in the right domain!
 GIGC_Chunk_Run: Running for in-PET grid #           1
 GIGC_Chunk_Run: Received new grid IM, JM, LM =          15           9
          49
 =================================================
 W R F - G C   T I M E R S
    Domain           1 (Units: s)
 =================================================
  => Coupler Component                       1.914
   -- Physics & Parameterization             0.529
   -- Diagnostics Out                        0.000
  => GEOS-Chem Column                      207.150
  ===> Total Chemistry                     209.064
  => WRF                                   989.859
  ===> Total WRF-GC                       1198.923
 max optd  4.0020485E+33
 max taucldi  5.9514288E-05
 max taucldw  7.4650731E-04
 Switching is not necessary as we are already
 in the right domain!
 GIGC_Chunk_Run: Running for in-PET grid #           1
 GIGC_Chunk_Run: Received new grid IM, JM, LM =          15           9
          49
 =================================================
 W R F - G C   T I M E R S
    Domain           1 (Units: s)
 =================================================
  => Coupler Component                       1.950
   -- Physics & Parameterization             0.538
   -- Diagnostics Out                        0.000
  => GEOS-Chem Column                      208.214
  ===> Total Chemistry                     210.165
  => WRF                                  1008.032
  ===> Total WRF-GC                       1218.197
 max optd  4.0020485E+33
 max taucldi  5.8369114E-05
 max taucldw  7.7461236E-04
 Switching is not necessary as we are already
 in the right domain!
 GIGC_Chunk_Run: Running for in-PET grid #           1
 GIGC_Chunk_Run: Received new grid IM, JM, LM =          15           9
          49
 =================================================
 W R F - G C   T I M E R S
    Domain           1 (Units: s)
 =================================================
  => Coupler Component                       1.988
   -- Physics & Parameterization             0.547
   -- Diagnostics Out                        0.000
  => GEOS-Chem Column                      209.272
  ===> Total Chemistry                     211.260
  => WRF                                  1026.136
  ===> Total WRF-GC                       1237.396
 max optd  4.0020485E+33
 max taucldi  6.0465838E-05
 max taucldw  8.0651074E-04
 Switching is not necessary as we are already
 in the right domain!
 GIGC_Chunk_Run: Running for in-PET grid #           1
 GIGC_Chunk_Run: Received new grid IM, JM, LM =          15           9
          49
 =================================================
 W R F - G C   T I M E R S
    Domain           1 (Units: s)
 =================================================
  => Coupler Component                       2.026
   -- Physics & Parameterization             0.557
   -- Diagnostics Out                        0.000
  => GEOS-Chem Column                      210.328
  ===> Total Chemistry                     212.355
  => WRF                                  1044.277
  ===> Total WRF-GC                       1256.631
 max optd  4.0020485E+33
 max taucldi  6.4141415E-05
 max taucldw  8.4124849E-04
 Switching is not necessary as we are already
 in the right domain!
 GIGC_Chunk_Run: Running for in-PET grid #           1
 GIGC_Chunk_Run: Received new grid IM, JM, LM =          15           9
          49
 =================================================
 W R F - G C   T I M E R S
    Domain           1 (Units: s)
 =================================================
  => Coupler Component                       2.064
   -- Physics & Parameterization             0.567
   -- Diagnostics Out                        0.000
  => GEOS-Chem Column                      211.394
  ===> Total Chemistry                     213.458
  => WRF                                  1062.388
  ===> Total WRF-GC                       1275.846
 max optd  4.0020485E+33
 max taucldi  6.7652443E-05
 max taucldw  8.7725645E-04
 Switching is not necessary as we are already
 in the right domain!
 GIGC_Chunk_Run: Running for in-PET grid #           1
 GIGC_Chunk_Run: Received new grid IM, JM, LM =          15           9
          49
 =================================================
 W R F - G C   T I M E R S
    Domain           1 (Units: s)
 =================================================
  => Coupler Component                       2.105
   -- Physics & Parameterization             0.577
   -- Diagnostics Out                        0.000
  => GEOS-Chem Column                      212.433
  ===> Total Chemistry                     214.538
  => WRF                                  1080.471
  ===> Total WRF-GC                       1295.009
 max optd  4.0020485E+33
 max taucldi  7.0441754E-05
 max taucldw  9.1190496E-04
 Switching is not necessary as we are already
 in the right domain!
 GIGC_Chunk_Run: Running for in-PET grid #           1
 GIGC_Chunk_Run: Received new grid IM, JM, LM =          15           9
          49
 =================================================
 W R F - G C   T I M E R S
    Domain           1 (Units: s)
 =================================================
  => Coupler Component                       2.152
   -- Physics & Parameterization             0.586
   -- Diagnostics Out                        0.000
  => GEOS-Chem Column                      213.476
  ===> Total Chemistry                     215.628
  => WRF                                  1098.552
  ===> Total WRF-GC                       1314.180
 HOURLY EMISSIONS UPDATE TIME    18000.0       0.0
mediation_integrate: med_read_wrf_chem_emissions: Read emissions for time 2018-01-01_05:00:00
 max optd  4.0020485E+33
 max taucldi  7.2151262E-05
 max taucldw  9.4238215E-04
 Switching is not necessary as we are already
 in the right domain!
 GIGC_Chunk_Run: Running for in-PET grid #           1
 GIGC_Chunk_Run: Received new grid IM, JM, LM =          15           9
          49
 =================================================
 W R F - G C   T I M E R S
    Domain           1 (Units: s)
 =================================================
  => Coupler Component                       2.194
   -- Physics & Parameterization             0.596
   -- Diagnostics Out                        0.000
  => GEOS-Chem Column                      214.519
  ===> Total Chemistry                     216.713
  => WRF                                  1116.714
  ===> Total WRF-GC                       1333.427
 max optd  4.0020485E+33
 max taucldi  7.3770869E-05
 max taucldw  9.6711743E-04
 Switching is not necessary as we are already
 in the right domain!
 GIGC_Chunk_Run: Running for in-PET grid #           1
 GIGC_Chunk_Run: Received new grid IM, JM, LM =          15           9
          49
 =================================================
 W R F - G C   T I M E R S
    Domain           1 (Units: s)
 =================================================
  => Coupler Component                       2.233
   -- Physics & Parameterization             0.606
   -- Diagnostics Out                        0.000
  => GEOS-Chem Column                      215.582
  ===> Total Chemistry                     217.815
  => WRF                                  1134.818
  ===> Total WRF-GC                       1352.633
 max optd  4.0020485E+33
 max taucldi  7.6284057E-05
 max taucldw  9.8562078E-04
 Switching is not necessary as we are already
 in the right domain!
 GIGC_Chunk_Run: Running for in-PET grid #           1
 GIGC_Chunk_Run: Received new grid IM, JM, LM =          15           9
          49
 =================================================
 W R F - G C   T I M E R S
    Domain           1 (Units: s)
 =================================================
  => Coupler Component                       2.279
   -- Physics & Parameterization             0.615
   -- Diagnostics Out                        0.000
  => GEOS-Chem Column                      216.619
  ===> Total Chemistry                     218.898
  => WRF                                  1152.910
  ===> Total WRF-GC                       1371.807
 max optd  4.0020485E+33
 max taucldi  7.8198937E-05
 max taucldw  9.9761749E-04
 Switching is not necessary as we are already
 in the right domain!
 GIGC_Chunk_Run: Running for in-PET grid #           1
 GIGC_Chunk_Run: Received new grid IM, JM, LM =          15           9
          49
 =================================================
 W R F - G C   T I M E R S
    Domain           1 (Units: s)
 =================================================
  => Coupler Component                       2.318
   -- Physics & Parameterization             0.624
   -- Diagnostics Out                        0.000
  => GEOS-Chem Column                      217.677
  ===> Total Chemistry                     219.995
  => WRF                                  1171.053
  ===> Total WRF-GC                       1391.048
 max optd  4.0020485E+33
 max taucldi  7.9476071E-05
 max taucldw  1.0034231E-03
 Switching is not necessary as we are already
 in the right domain!
 GIGC_Chunk_Run: Running for in-PET grid #           1
 GIGC_Chunk_Run: Received new grid IM, JM, LM =          15           9
          49
 =================================================
 W R F - G C   T I M E R S
    Domain           1 (Units: s)
 =================================================
  => Coupler Component                       2.356
   -- Physics & Parameterization             0.634
   -- Diagnostics Out                        0.000
  => GEOS-Chem Column                      218.740
  ===> Total Chemistry                     221.096
  => WRF                                  1189.227
  ===> Total WRF-GC                       1410.323
 max optd  4.0020485E+33
 max taucldi  8.0041536E-05
 max taucldw  1.0025129E-03
 Switching is not necessary as we are already
 in the right domain!
 GIGC_Chunk_Run: Running for in-PET grid #           1
 GIGC_Chunk_Run: Received new grid IM, JM, LM =          15           9
          49
 =================================================
 W R F - G C   T I M E R S
    Domain           1 (Units: s)
 =================================================
  => Coupler Component                       2.394
   -- Physics & Parameterization             0.643
   -- Diagnostics Out                        0.000
  => GEOS-Chem Column                      219.792
  ===> Total Chemistry                     222.187
  => WRF                                  1207.310
  ===> Total WRF-GC                       1429.497
 max optd  4.0020485E+33
 max taucldi  7.9898447E-05
 max taucldw  9.9509628E-04
 Switching is not necessary as we are already
 in the right domain!
 GIGC_Chunk_Run: Running for in-PET grid #           1
 GIGC_Chunk_Run: Received new grid IM, JM, LM =          15           9
          49
 =================================================
 W R F - G C   T I M E R S
    Domain           1 (Units: s)
 =================================================
  => Coupler Component                       2.441
   -- Physics & Parameterization             0.654
   -- Diagnostics Out                        0.000
  => GEOS-Chem Column                      220.809
  ===> Total Chemistry                     223.250
  => WRF                                  1225.493
  ===> Total WRF-GC                       1448.742
 max optd  4.0020485E+33
 max taucldi  7.9136720E-05
 max taucldw  9.8247698E-04
 Switching is not necessary as we are already
 in the right domain!
 GIGC_Chunk_Run: Running for in-PET grid #           1
 GIGC_Chunk_Run: Received new grid IM, JM, LM =          15           9
          49
 =================================================
 W R F - G C   T I M E R S
    Domain           1 (Units: s)
 =================================================
  => Coupler Component                       2.479
   -- Physics & Parameterization             0.664
   -- Diagnostics Out                        0.000
  => GEOS-Chem Column                      221.880
  ===> Total Chemistry                     224.358
  => WRF                                  1243.641
  ===> Total WRF-GC                       1468.000
 max optd  4.0020485E+33
 max taucldi  7.8533172E-05
 max taucldw  9.6485857E-04
 Switching is not necessary as we are already
 in the right domain!
 GIGC_Chunk_Run: Running for in-PET grid #           1
 GIGC_Chunk_Run: Received new grid IM, JM, LM =          15           9
          49
 =================================================
 W R F - G C   T I M E R S
    Domain           1 (Units: s)
 =================================================
  => Coupler Component                       2.516
   -- Physics & Parameterization             0.674
   -- Diagnostics Out                        0.000
  => GEOS-Chem Column                      222.951
  ===> Total Chemistry                     225.467
  => WRF                                  1261.791
  ===> Total WRF-GC                       1487.257
 max optd  4.0020485E+33
 max taucldi  7.9271042E-05
 max taucldw  9.4290200E-04
 Switching is not necessary as we are already
 in the right domain!
 GIGC_Chunk_Run: Running for in-PET grid #           1
 GIGC_Chunk_Run: Received new grid IM, JM, LM =          15           9
          49
 =================================================
 W R F - G C   T I M E R S
    Domain           1 (Units: s)
 =================================================
  => Coupler Component                       2.553
   -- Physics & Parameterization             0.683
   -- Diagnostics Out                        0.000
  => GEOS-Chem Column                      224.013
  ===> Total Chemistry                     226.566
  => WRF                                  1280.170
  ===> Total WRF-GC                       1506.736
 max optd  4.0020485E+33
 max taucldi  7.9387522E-05
 max taucldw  9.3371386E-04
 Switching is not necessary as we are already
 in the right domain!
 GIGC_Chunk_Run: Running for in-PET grid #           1
 GIGC_Chunk_Run: Received new grid IM, JM, LM =          15           9
          49
 =================================================
 W R F - G C   T I M E R S
    Domain           1 (Units: s)
 =================================================
  => Coupler Component                       2.592
   -- Physics & Parameterization             0.693
   -- Diagnostics Out                        0.000
  => GEOS-Chem Column                      225.077
  ===> Total Chemistry                     227.669
  => WRF                                  1298.295
  ===> Total WRF-GC                       1525.964
 max optd  4.0020485E+33
 max taucldi  7.8951263E-05
 max taucldw  9.2985376E-04
 Switching is not necessary as we are already
 in the right domain!
 GIGC_Chunk_Run: Running for in-PET grid #           1
 GIGC_Chunk_Run: Received new grid IM, JM, LM =          15           9
          49
 =================================================
 W R F - G C   T I M E R S
    Domain           1 (Units: s)
 =================================================
  => Coupler Component                       2.629
   -- Physics & Parameterization             0.701
   -- Diagnostics Out                        0.000
  => GEOS-Chem Column                      226.139
  ===> Total Chemistry                     228.768
  => WRF                                  1316.409
  ===> Total WRF-GC                       1545.176
 HOURLY EMISSIONS UPDATE TIME    21600.0       0.0
mediation_integrate: med_read_wrf_chem_emissions: Read emissions for time 2018-01-01_06:00:00
 max optd  4.0020485E+33
 max taucldi  7.8136101E-05
 max taucldw  9.3468052E-04
 Switching is not necessary as we are already
 in the right domain!
 GIGC_Chunk_Run: Running for in-PET grid #           1
 GIGC_Chunk_Run: Received new grid IM, JM, LM =          15           9
          49
 =================================================
 W R F - G C   T I M E R S
    Domain           1 (Units: s)
 =================================================
  => Coupler Component                       2.667
   -- Physics & Parameterization             0.711
   -- Diagnostics Out                        0.000
  => GEOS-Chem Column                      227.204
  ===> Total Chemistry                     229.871
  => WRF                                  1775.078
  ===> Total WRF-GC                       2004.949
 max optd  4.0020485E+33
 max taucldi  7.7133758E-05
 max taucldw  9.3984941E-04
 Switching is not necessary as we are already
 in the right domain!
 GIGC_Chunk_Run: Running for in-PET grid #           1
 GIGC_Chunk_Run: Received new grid IM, JM, LM =          15           9
          49
 =================================================
 W R F - G C   T I M E R S
    Domain           1 (Units: s)
 =================================================
  => Coupler Component                       2.711
   -- Physics & Parameterization             0.720
   -- Diagnostics Out                        0.000
  => GEOS-Chem Column                      228.250
  ===> Total Chemistry                     230.961
  => WRF                                  1793.207
  ===> Total WRF-GC                       2024.168
 max optd  4.0020485E+33
 max taucldi  7.6132339E-05
 max taucldw  9.4584434E-04
 Switching is not necessary as we are already
 in the right domain!
 GIGC_Chunk_Run: Running for in-PET grid #           1
 GIGC_Chunk_Run: Received new grid IM, JM, LM =          15           9
          49
 =================================================
 W R F - G C   T I M E R S
    Domain           1 (Units: s)
 =================================================
  => Coupler Component                       2.749
   -- Physics & Parameterization             0.730
   -- Diagnostics Out                        0.000
  => GEOS-Chem Column                      229.324
  ===> Total Chemistry                     232.073
  => WRF                                  1811.492
  ===> Total WRF-GC                       2043.565
 max optd  4.0020485E+33
 max taucldi  7.5264048E-05
 max taucldw  9.5305836E-04
 Switching is not necessary as we are already
 in the right domain!
 GIGC_Chunk_Run: Running for in-PET grid #           1
 GIGC_Chunk_Run: Received new grid IM, JM, LM =          15           9
          49
 =================================================
 W R F - G C   T I M E R S
    Domain           1 (Units: s)
 =================================================
  => Coupler Component                       2.793
[...]
  => GEOS-Chem Column                      276.798
  ===> Total Chemistry                     281.397
  => WRF                                  2629.373
  ===> Total WRF-GC                       2910.770
 HOURLY EMISSIONS UPDATE TIME    36000.0       0.0
mediation_integrate: med_read_wrf_chem_emissions: Read emissions for time 2018-01-01_10:00:00
 max optd  4.0020485E+33
 max taucldi  7.7475794E-05
 max taucldw  8.5852691E-04
 Switching is not necessary as we are already
 in the right domain!
 GIGC_Chunk_Run: Running for in-PET grid #           1
 GIGC_Chunk_Run: Received new grid IM, JM, LM =          15           9
          49
 =================================================
 W R F - G C   T I M E R S
    Domain           1 (Units: s)
 =================================================
  => Coupler Component                       4.637
   -- Physics & Parameterization             1.170
   -- Diagnostics Out                        0.000
  => GEOS-Chem Column                      277.855
  ===> Total Chemistry                     282.492
  => WRF                                  2647.597
  ===> Total WRF-GC                       2930.088
 max optd  4.0020485E+33
 max taucldi  7.7439356E-05
 max taucldw  8.5474551E-04
 Switching is not necessary as we are already
 in the right domain!
 GIGC_Chunk_Run: Running for in-PET grid #           1
 GIGC_Chunk_Run: Received new grid IM, JM, LM =          15           9
          49
 =================================================
 W R F - G C   T I M E R S
    Domain           1 (Units: s)
 =================================================
  => Coupler Component                       4.680
   -- Physics & Parameterization             1.180
   -- Diagnostics Out                        0.000
  => GEOS-Chem Column                      278.895
  ===> Total Chemistry                     283.575
  => WRF                                  2665.740
  ===> Total WRF-GC                       2949.315
 max optd  4.0020485E+33
 max taucldi  7.7392862E-05
 max taucldw  8.5149700E-04
 Switching is not necessary as we are already
 in the right domain!
 GIGC_Chunk_Run: Running for in-PET grid #           1
 GIGC_Chunk_Run: Received new grid IM, JM, LM =          15           9
          49
 =================================================
 W R F - G C   T I M E R S
    Domain           1 (Units: s)
 =================================================
  => Coupler Component                       4.723
   -- Physics & Parameterization             1.189
   -- Diagnostics Out                        0.000
  => GEOS-Chem Column                      279.932
  ===> Total Chemistry                     284.655
  => WRF                                  2683.893
  ===> Total WRF-GC                       2968.547
 max optd  4.0020485E+33
 max taucldi  7.7332617E-05
 max taucldw  8.4913650E-04
 Switching is not necessary as we are already
 in the right domain!
 GIGC_Chunk_Run: Running for in-PET grid #           1
 GIGC_Chunk_Run: Received new grid IM, JM, LM =          15           9
          49
 =================================================
 W R F - G C   T I M E R S
    Domain           1 (Units: s)
 =================================================
  => Coupler Component                       4.760
   -- Physics & Parameterization             1.198
   -- Diagnostics Out                        0.000
  => GEOS-Chem Column                      281.000
  ===> Total Chemistry                     285.760
  => WRF                                  2702.143
  ===> Total WRF-GC                       2987.903
 max optd  4.0020485E+33
 max taucldi  7.7272016E-05
 max taucldw  8.4802002E-04
 Switching is not necessary as we are already
 in the right domain!
 GIGC_Chunk_Run: Running for in-PET grid #           1
 GIGC_Chunk_Run: Received new grid IM, JM, LM =          15           9
          49
 =================================================
 W R F - G C   T I M E R S
    Domain           1 (Units: s)
 =================================================
  => Coupler Component                       4.807
   -- Physics & Parameterization             1.208
   -- Diagnostics Out                        0.000
  => GEOS-Chem Column                      282.047
  ===> Total Chemistry                     286.854
  => WRF                                  2720.311
  ===> Total WRF-GC                       3007.165
 max optd  4.0020485E+33
 max taucldi  7.7261560E-05
 max taucldw  8.5108244E-04
 Switching is not necessary as we are already
 in the right domain!
 GIGC_Chunk_Run: Running for in-PET grid #           1
 GIGC_Chunk_Run: Received new grid IM, JM, LM =          15           9
          49
 =================================================
 W R F - G C   T I M E R S
    Domain           1 (Units: s)
 =================================================
  => Coupler Component                       4.846
   -- Physics & Parameterization             1.218
   -- Diagnostics Out                        0.000
  => GEOS-Chem Column                      283.109
  ===> Total Chemistry                     287.955
  => WRF                                  2738.416
  ===> Total WRF-GC                       3026.371
 max optd  4.0020485E+33
 max taucldi  7.7379285E-05
 max taucldw  8.5715204E-04
 Switching is not necessary as we are already
 in the right domain!
 GIGC_Chunk_Run: Running for in-PET grid #           1
 GIGC_Chunk_Run: Received new grid IM, JM, LM =          15           9
          49
 =================================================
 W R F - G C   T I M E R S
    Domain           1 (Units: s)
 =================================================
  => Coupler Component                       4.883
   -- Physics & Parameterization             1.227
   -- Diagnostics Out                        0.000
  => GEOS-Chem Column                      284.177
  ===> Total Chemistry                     289.060
  => WRF                                  2756.593
  ===> Total WRF-GC                       3045.653
 max optd  4.0020485E+33
 max taucldi  7.7678800E-05
 max taucldw  8.6592254E-04
 Switching is not necessary as we are already
 in the right domain!
 GIGC_Chunk_Run: Running for in-PET grid #           1
 GIGC_Chunk_Run: Received new grid IM, JM, LM =          15           9
          49
 =================================================
 W R F - G C   T I M E R S
    Domain           1 (Units: s)
 =================================================
  => Coupler Component                       4.922
   -- Physics & Parameterization             1.237
   -- Diagnostics Out                        0.000
  => GEOS-Chem Column                      285.235
  ===> Total Chemistry                     290.156
  => WRF                                  2774.746
  ===> Total WRF-GC                       3064.903
 max optd  4.0020485E+33
 max taucldi  7.8492398E-05
 max taucldw  8.7689434E-04
 Switching is not necessary as we are already
 in the right domain!
 GIGC_Chunk_Run: Running for in-PET grid #           1
 GIGC_Chunk_Run: Received new grid IM, JM, LM =          15           9
          49
 =================================================
 W R F - G C   T I M E R S
    Domain           1 (Units: s)
 =================================================
  => Coupler Component                       4.960
   -- Physics & Parameterization             1.247
   -- Diagnostics Out                        0.000
  => GEOS-Chem Column                      286.299
  ===> Total Chemistry                     291.259
  => WRF                                  2792.873
  ===> Total WRF-GC                       3084.132
 max optd  4.0020485E+33
 max taucldi  7.9804668E-05
 max taucldw  8.8877487E-04
 Switching is not necessary as we are already
 in the right domain!
 GIGC_Chunk_Run: Running for in-PET grid #           1
 GIGC_Chunk_Run: Received new grid IM, JM, LM =          15           9
          49
 =================================================
 W R F - G C   T I M E R S
    Domain           1 (Units: s)
 =================================================
  => Coupler Component                       4.996
   -- Physics & Parameterization             1.256
   -- Diagnostics Out                        0.000
  => GEOS-Chem Column                      287.359
  ===> Total Chemistry                     292.355
  => WRF                                  2811.076
  ===> Total WRF-GC                       3103.432
 max optd  4.0020485E+33
 max taucldi  8.1096383E-05
 max taucldw  8.9990773E-04
 Switching is not necessary as we are already
 in the right domain!
 GIGC_Chunk_Run: Running for in-PET grid #           1
 GIGC_Chunk_Run: Received new grid IM, JM, LM =          15           9
          49
 =================================================
 W R F - G C   T I M E R S
    Domain           1 (Units: s)
 =================================================
  => Coupler Component                       5.034
   -- Physics & Parameterization             1.266
   -- Diagnostics Out                        0.000
  => GEOS-Chem Column                      288.422
  ===> Total Chemistry                     293.455
  => WRF                                  2829.222
  ===> Total WRF-GC                       3122.678
 max optd  4.0020485E+33
 max taucldi  8.2229017E-05
 max taucldw  9.0871536E-04
 Switching is not necessary as we are already
 in the right domain!
 GIGC_Chunk_Run: Running for in-PET grid #           1
 GIGC_Chunk_Run: Received new grid IM, JM, LM =          15           9
          49
 =================================================
 W R F - G C   T I M E R S
    Domain           1 (Units: s)
 =================================================
  => Coupler Component                       5.072
   -- Physics & Parameterization             1.275
   -- Diagnostics Out                        0.000
  => GEOS-Chem Column                      289.485
  ===> Total Chemistry                     294.556
  => WRF                                  2847.417
  ===> Total WRF-GC                       3141.973
 HOURLY EMISSIONS UPDATE TIME    39600.0       0.0
mediation_integrate: med_read_wrf_chem_emissions: Read emissions for time 2018-01-01_11:00:00
 max optd  4.0020485E+33
 max taucldi  8.3069295E-05
 max taucldw  9.1381057E-04
 Switching is not necessary as we are already
 in the right domain!
 GIGC_Chunk_Run: Running for in-PET grid #           1
 GIGC_Chunk_Run: Received new grid IM, JM, LM =          15           9
          49
 =================================================
 W R F - G C   T I M E R S
    Domain           1 (Units: s)
 =================================================
  => Coupler Component                       5.108
   -- Physics & Parameterization             1.285
   -- Diagnostics Out                        0.000
  => GEOS-Chem Column                      290.568
  ===> Total Chemistry                     295.675
  => WRF                                  2865.600
  ===> Total WRF-GC                       3161.275
 max optd  4.0020485E+33
 max taucldi  8.3523890E-05
 max taucldw  9.1434125E-04
 Switching is not necessary as we are already
 in the right domain!
 GIGC_Chunk_Run: Running for in-PET grid #           1
 GIGC_Chunk_Run: Received new grid IM, JM, LM =          15           9
          49
 =================================================
 W R F - G C   T I M E R S
    Domain           1 (Units: s)
 =================================================
  => Coupler Component                       5.146
   -- Physics & Parameterization             1.294
   -- Diagnostics Out                        0.000
  => GEOS-Chem Column                      291.638
  ===> Total Chemistry                     296.785
  => WRF                                  2883.701
  ===> Total WRF-GC                       3180.485
 max optd  4.0020485E+33
 max taucldi  8.3754669E-05
 max taucldw  9.1020414E-04
 Switching is not necessary as we are already
 in the right domain!
 GIGC_Chunk_Run: Running for in-PET grid #           1
 GIGC_Chunk_Run: Received new grid IM, JM, LM =          15           9
          49
 =================================================
 W R F - G C   T I M E R S
    Domain           1 (Units: s)
 =================================================
  => Coupler Component                       5.184
   -- Physics & Parameterization             1.304
   -- Diagnostics Out                        0.000
  => GEOS-Chem Column                      292.700
  ===> Total Chemistry                     297.884
  => WRF                                  2901.920
  ===> Total WRF-GC                       3199.804
 max optd  4.0020485E+33
 max taucldi  8.5246007E-05
 max taucldw  9.0221426E-04
 Switching is not necessary as we are already
 in the right domain!
 GIGC_Chunk_Run: Running for in-PET grid #           1
 GIGC_Chunk_Run: Received new grid IM, JM, LM =          15           9
          49
 =================================================
 W R F - G C   T I M E R S
    Domain           1 (Units: s)
 =================================================
  => Coupler Component                       5.220
   -- Physics & Parameterization             1.314
   -- Diagnostics Out                        0.000
  => GEOS-Chem Column                      293.757
  ===> Total Chemistry                     298.976
  => WRF                                  2920.189
  ===> Total WRF-GC                       3219.165
 max optd  4.0020485E+33
 max taucldi  8.6278924E-05
 max taucldw  8.9193782E-04
 Switching is not necessary as we are already
 in the right domain!
 GIGC_Chunk_Run: Running for in-PET grid #           1
 GIGC_Chunk_Run: Received new grid IM, JM, LM =          15           9
          49
 =================================================
 W R F - G C   T I M E R S
    Domain           1 (Units: s)
 =================================================
  => Coupler Component                       5.257
   -- Physics & Parameterization             1.324
   -- Diagnostics Out                        0.000
  => GEOS-Chem Column                      294.812
  ===> Total Chemistry                     300.070
  => WRF                                  2938.611
  ===> Total WRF-GC                       3238.681
 max optd  4.0020485E+33
 max taucldi  8.6790242E-05
 max taucldw  8.8097889E-04
 Switching is not necessary as we are already
 in the right domain!
 GIGC_Chunk_Run: Running for in-PET grid #           1
 GIGC_Chunk_Run: Received new grid IM, JM, LM =          15           9
          49
 =================================================
 W R F - G C   T I M E R S
    Domain           1 (Units: s)
 =================================================
  => Coupler Component                       5.294
   -- Physics & Parameterization             1.334
   -- Diagnostics Out                        0.000
  => GEOS-Chem Column                      295.881
  ===> Total Chemistry                     301.175
  => WRF                                  2957.008
  ===> Total WRF-GC                       3258.184
 max optd  4.0020485E+33
 max taucldi  8.6822132E-05
 max taucldw  8.7064132E-04
 Switching is not necessary as we are already
 in the right domain!
 GIGC_Chunk_Run: Running for in-PET grid #           1
 GIGC_Chunk_Run: Received new grid IM, JM, LM =          15           9
          49
 =================================================
 W R F - G C   T I M E R S
    Domain           1 (Units: s)
 =================================================
  => Coupler Component                       5.329
   -- Physics & Parameterization             1.343
   -- Diagnostics Out                        0.000
  => GEOS-Chem Column                      296.950
  ===> Total Chemistry                     302.278
  => WRF                                  2975.536
  ===> Total WRF-GC                       3277.814
 max optd  4.0020485E+33
 max taucldi  8.6482032E-05
 max taucldw  8.6178305E-04
 Switching is not necessary as we are already
 in the right domain!
 GIGC_Chunk_Run: Running for in-PET grid #           1
 GIGC_Chunk_Run: Received new grid IM, JM, LM =          15           9
          49
 =================================================
 W R F - G C   T I M E R S
    Domain           1 (Units: s)
 =================================================
  => Coupler Component                       5.363
   -- Physics & Parameterization             1.353
   -- Diagnostics Out                        0.000
  => GEOS-Chem Column                      298.030
  ===> Total Chemistry                     303.393
  => WRF                                  2994.100
  ===> Total WRF-GC                       3297.493
 max optd  4.0020485E+33
 max taucldi  8.5906744E-05
 max taucldw  8.5429562E-04
 Switching is not necessary as we are already
 in the right domain!
 GIGC_Chunk_Run: Running for in-PET grid #           1
 GIGC_Chunk_Run: Received new grid IM, JM, LM =          15           9
          49
 =================================================
 W R F - G C   T I M E R S
    Domain           1 (Units: s)
 =================================================
  => Coupler Component                       5.390
   -- Physics & Parameterization             1.362
   -- Diagnostics Out                        0.000
  => GEOS-Chem Column                      299.711
  ===> Total Chemistry                     305.100
  => WRF                                  3012.762
  ===> Total WRF-GC                       3317.862
 max optd  4.0020485E+33
 max taucldi  8.5241110E-05
 max taucldw  8.4787811E-04
 Switching is not necessary as we are already
 in the right domain!
 GIGC_Chunk_Run: Running for in-PET grid #           1
 GIGC_Chunk_Run: Received new grid IM, JM, LM =          15           9
          49
 =================================================
 W R F - G C   T I M E R S
    Domain           1 (Units: s)
 =================================================
  => Coupler Component                       5.432
   -- Physics & Parameterization             1.371
   -- Diagnostics Out                        0.000
  => GEOS-Chem Column                      300.969
  ===> Total Chemistry                     306.401
  => WRF                                  3031.046
  ===> Total WRF-GC                       3337.446
 max optd  4.0020485E+33
 max taucldi  8.4893392E-05
 max taucldw  8.4204663E-04
 Switching is not necessary as we are already
 in the right domain!
 GIGC_Chunk_Run: Running for in-PET grid #           1
 GIGC_Chunk_Run: Received new grid IM, JM, LM =          15           9
          49
 =================================================
 W R F - G C   T I M E R S
    Domain           1 (Units: s)
 =================================================
  => Coupler Component                       5.455
   -- Physics & Parameterization             1.381
   -- Diagnostics Out                        0.000
  => GEOS-Chem Column                      302.422
  ===> Total Chemistry                     307.877
  => WRF                                  3049.652
  ===> Total WRF-GC                       3357.530
 max optd  4.0020485E+33
 max taucldi  8.5106854E-05
 max taucldw  8.3623733E-04
 Switching is not necessary as we are already
 in the right domain!
 GIGC_Chunk_Run: Running for in-PET grid #           1
 GIGC_Chunk_Run: Received new grid IM, JM, LM =          15           9
          49
 =================================================
 W R F - G C   T I M E R S
    Domain           1 (Units: s)
 =================================================
  => Coupler Component                       5.484
   -- Physics & Parameterization             1.391
   -- Diagnostics Out                        0.000
  => GEOS-Chem Column                      303.790
  ===> Total Chemistry                     309.274
  => WRF                                  3068.007
  ===> Total WRF-GC                       3377.281
d01 2018-01-01_12:00:00 wrf: SUCCESS COMPLETE WRF
