taskid: 3090 hostname: ip-172-31-10-224
Quilting with   1 groups of   0 I/O tasks.
 Ntasks in X           64 , ntasks in Y           72
--- WARNING: traj_opt is zero, but num_traj is not zero; setting num_traj to zero.
--- NOTE: sst_update is 0, setting io_form_auxinput4 = 0 and auxinput4_interval = 0 for all domains
--- NOTE: grid_fdda is 0 for domain      1, setting gfdda interval and ending time to 0 for that domain.
--- NOTE: both grid_sfdda and pxlsm_soil_nudge are 0 for domain      1, setting sgfdda interval and ending time to 0 for that domain.
--- NOTE: obs_nudge_opt is 0 for domain      1, setting obs nudging interval and ending time to 0 for that domain.
--- NOTE: bl_pbl_physics /= 4, implies mfshconv must be 0, resetting
Need MYNN PBL for icloud_bl = 1, resetting to 0
*************************************
No physics suite selected.
Physics options will be used directly from the namelist.
*************************************
--- NOTE: RRTMG radiation is in use, setting:  levsiz=59, alevsiz=12, no_src_types=6
--- NOTE: num_soil_layers has been set to      4
WRF V3.9.1.1 MODEL
 *************************************
 Parent domain
 ids,ide,jds,jde            1         950           1         650
 ims,ime,jms,jme          264         292         427         449
 ips,ipe,jps,jpe          271         285         434         442
 *************************************
DYNAMICS OPTION: Eulerian Mass Coordinate
   alloc_space_field: domain            1 ,              203623800  bytes allocated
  med_initialdata_input: calling input_input
Max map factor in domain 1 =  1.40. Scale the dt in the model accordingly.
INPUT LandUse = "USGS"
 LANDUSE TYPE = "USGS" FOUND          33  CATEGORIES           2  SEASONS WATER CATEGORY =           16  SNOW CATEGORY =           24
INITIALIZE THREE Noah LSM RELATED TABLES
*****************************************************************
  __          _______  ______       _____  _____ _    _ _____
  \ \        / /  __ \|  ____|     / ____|/ ____| |  | |  __ \
   \ \  /\  / /| |__) | |__ ______| |  __| |    | |__| | |__) |
    \ \/  \/ / |  _  /|  __|______| | |_ | |    |  __  |  ___/
     \  /\  /  | | \ \| |         | |__| | |____| |  | | |
      \/  \/   |_|  \_\_|          \_____|\_____|_|  |_|_|
*****************************************************************
         WRF-GC MODEL, VERSION 1811.11 - WRF BINDINGS
 For errors, suggestions & feedback email linhaipeng@pku.edu.cn
*****************************************************************
    This is domain            1
 ### GIGC_Stateful_Mod: Root CPU, after READ_INPUT_FILE
  Linoz Data:  O3 climatology :                  z*=10, 12, ..., 58                             2.700E-08 1.083E-05
  Linoz Data:  Temperature climatology :         z*=10, 12, ..., 58                             1.859E+02 2.904E+02
  Linoz Data:  Column O3 above box climalology : z*=10, 12, ..., 58                             7.538E-02 3.770E+02
  Linoz Data:  P-L O3 climatology (mr/s):        z*=10, 12, ..., 58                            -1.590E-10 2.835E-11
  Linoz Data:  d(P-L)/dO3 (1/s) :                z*=10, 12, ..., 58                            -8.386E-04 7.556E-09
  Linoz Data:  d(P-L)/dT (mr/K) :                z*=10, 12, ..., 58                            -5.742E-12 4.615E-14
  Linoz Data:  d(P-L)/d(column O3) (mr/DU) :     z*=10, 12, ..., 58                            -1.921E-12 5.038E-10
 ### GIGC_Stateful_Mod: Root CPU, after LINOZ_READ
 %%%%%%%%% GIGC IN-PET GRID SWITCHING HACKS %%%%%%%%%
     (Not very) Proudly brought to you by hplin      
 Some debug information:
 ID:           1
 IM, JM, LM:          15           9          49  will be set as PAR
 Allocs: CMN T GC F
 RC at entry-point:           0
 %%%%%%%%%%%%%%%%%%%%%%%%%%%%%%%%%%%%%%%%%%%%%%%%%%%%
 No need to switch HcoState for ID           1
 Exit RC:            0
 %%%%%%%%%    FINISHED GIGC_Switch_Dims    %%%%%%%%%
 GIGC_Chunk_Init: Received new grid IM, JM, LM =          15           9
          49
     ### GIGC_INIT_SIMULATION: after Input_Opt% setups
     ### GIGC_INIT_SIMULATION: after GC_Init_All
     ### GIGC_INIT_SIMULATION: after GC_Init_Extra
     ### GIGC_INIT_SIMULATION: after INIT_FJX
 # GIGC_CHUNK_MOD: after SV save, ID =           1
 WRFGC chemics_init: Following information regarding Input_Opt% (for all doms)
 After domain           1
 HPC:  T
 LPRT:  F
 DoConv:  T
 DoDryDep:  T
 DoEmis:  T
 DoChem:  T
 DoTurb:  T
 DoWetDep:  T

 tropopause_init: DONE intialized domain            1

 mediation_integrate: med_read_wrf_chem_emissions: Open file wrfchemi_00z_d01
 HOURLY EMISSIONS UPDATE TIME        0.0       0.0
mediation_integrate: med_read_wrf_chem_emissions: Read emissions for time 2018-01-01_00:00:00
open_aux_u : error opening wrffirechemi_d01_2018-01-01_00:00:00 for reading. 100
open_aux_u : error opening wrfchemi_gocart_bg_d01 for reading. 100
d01 2018-01-01_00:00:00 Input data processed for aux input   8 for domain   1
open_aux_u : error opening wrfchemv_d01 for reading. 100
 Tile Strategy is not specified. Assuming 1D-Y
WRF TILE   1 IS    271 IE    285 JS    434 JE    442
WRF NUMBER OF TILES =   1
 max optd  3.3547268E+12
 max taucldi  0.0000000E+00
 max taucldw  0.0000000E+00
 =================================================
 W R F - G C   T I M E R S
    Domain           1 (Units: s)
 =================================================
  => Coupler Component                       0.028
   -- Physics & Parameterization             0.001
   -- Diagnostics Out                        0.000
  => GEOS-Chem Column                        0.000
  ===> Total Chemistry                       0.028
  => WRF                                     0.000
  ===> Total WRF-GC                          0.028
 max optd  3.3547268E+12
 max taucldi  1.0000007E-14
 max taucldw  1.0000007E-14
 %%%%%%%%% GIGC IN-PET GRID SWITCHING HACKS %%%%%%%%%
     (Not very) Proudly brought to you by hplin      
 Some debug information:
 ID:           1
 IM, JM, LM:          15           9          49  will be set as PAR
 Allocs: CMN T GC T
 RC at entry-point:           0
 %%%%%%%%%%%%%%%%%%%%%%%%%%%%%%%%%%%%%%%%%%%%%%%%%%%%
 No need to switch HcoState for ID           1
 Debug HcoState nSpc, NX, NY, NZ         163          15           9          49
 Exit RC:            0
 %%%%%%%%%    FINISHED GIGC_Switch_Dims    %%%%%%%%%
 GIGC_Chunk_Run: Running for in-PET grid #           1
 GIGC_Chunk_Run: Received new grid IM, JM, LM =          15           9
          49
HEMCO: Opening /fsx/HEMCO/BIOFUEL/v2014-07/biofuel.geos.4x5.nc
HEMCO: Opening /fsx/HEMCO/BROMINE/v2015-02/Bromocarb_Liang2010.nc
HEMCO: Opening /fsx/HEMCO/ACET/v2014-07/ACET_seawater.generic.1x1.nc
HEMCO: Opening /fsx/HEMCO/SOILNOX/v2014-07/DepReservoirDefault.nc
HEMCO: Opening /fsx/HEMCO/SOILNOX/v2014-07/soilNOx.landtype.generic.025x025.1L.nc
HEMCO: Opening /fsx/HEMCO/SOILNOX/v2014-07/soilNOx.climate.generic.05x05.nc
HEMCO: Opening /fsx/HEMCO/DUST_DEAD/v2014-07/dst_tibds.geos.4x5.nc
HEMCO: Opening /fsx/HEMCO/DUST_DEAD/v2014-07/GOCART_src_fn.geos.4x5.nc
HEMCO: Opening /fsx/HEMCO/MEGAN/v2018-05/MEGAN2.1_EF.geos.025x03125.nc
HEMCO: Opening /fsx/HEMCO/MEGAN/v2017-07/CLM4_PFT.geos.025x03125.nc
HEMCO: Opening /fsx/HEMCO/TIMEZONES/v2015-02/timezones_voronoi_1x1.nc
HEMCO: Opening /fsx/HEMCO/STRAT/v2015-01/Bry/GEOSCCM_Bry.200701.day.nc
HEMCO: Opening /fsx/HEMCO/STRAT/v2015-01/Bry/GEOSCCM_Bry.200701.night.nc
HEMCO: Opening /fsx/HEMCO/OMOC/v2018-01/OMOC.DJF.01x01.nc
HEMCO: Opening /fsx/HEMCO/OMOC/v2018-01/OMOC.MAM.01x01.nc
HEMCO: Opening /fsx/HEMCO/OMOC/v2018-01/OMOC.JJA.01x01.nc
HEMCO: Opening /fsx/HEMCO/OMOC/v2018-01/OMOC.SON.01x01.nc
HEMCO: Opening /fsx/HEMCO/AnnualScalar/v2014-07/AnnualScalar.geos.1x1.nc
HEMCO: Opening /fsx/HEMCO/EDGARv42/v2015-02/NO/EDGAR_hourly_NOxScal.nc
HEMCO: Opening /fsx/HEMCO/MASKS/v2018-09/EMEP_mask.geos.1x1.20151222.nc
HEMCO: Opening /fsx/HEMCO/MASKS/v2018-09/Canada_mask.geos.1x1.nc
HEMCO: Opening /fsx/HEMCO/MASKS/v2018-09/SE_Asia_mask.generic.1x1.nc
HEMCO: Opening /fsx/HEMCO/MASKS/v2018-09/MIX_Asia_mask.generic.025x025.nc
HEMCO: Opening /fsx/HEMCO/MASKS/v2018-09/CONUS_Mask.01x01.nc
HEMCO: Opening /fsx/HEMCO/MASKS/v2018-09/AF_LANDMASK.geos.05x0666.global.nc
HEMCO: Opening /fsx/HEMCO/MASKS/v2018-09/China_mask.generic.1x1.nc
HEMCO: Opening /fsx/HEMCO/MASKS/v2018-09/India_mask.generic.1x1.nc
HEMCO: Opening /fsx/HEMCO/AnnualScalar/v2014-07/AnnualScalar.geos.1x1.nc
HEMCO: Opening /fsx/HEMCO/NH3/v2014-07/NH3_geos.4x5.nc
HEMCO: Opening /fsx/HEMCO/NH3/v2018-04/NH3_Arctic_seabirds.nc
HEMCO: Opening /fsx/HEMCO/CEDS/v2018-08/2014/NO-em-anthro_CMIP_CEDS_2014.nc
HEMCO: Opening /fsx/HEMCO/CEDS/v2018-08/2014/CO-em-anthro_CMIP_CEDS_2014.nc
HEMCO: Opening /fsx/HEMCO/CEDS/v2018-08/2014/SO2-em-anthro_CMIP_CEDS_2014.nc
HEMCO: Opening /fsx/HEMCO/CEDS/v2018-08/2014/NH3-em-anthro_CMIP_CEDS_2014.nc
HEMCO: Opening /fsx/HEMCO/CEDS/v2018-08/2014/BC-em-anthro_CMIP_CEDS_2014.nc
HEMCO: Opening /fsx/HEMCO/CEDS/v2018-08/2014/OC-em-anthro_CMIP_CEDS_2014.nc
HEMCO: Opening /fsx/HEMCO/CEDS/v2018-08/2014/EOH-em-anthro_CMIP_CEDS_2014.nc
HEMCO: Opening /fsx/HEMCO/CEDS/v2018-08/2014/C2H6-em-anthro_CMIP_CEDS_2014.nc
HEMCO: Opening /fsx/HEMCO/CEDS/v2018-08/2014/C3H8-em-anthro_CMIP_CEDS_2014.nc
HEMCO: Opening /fsx/HEMCO/CEDS/v2018-08/2014/ALK4_butanes-em-anthro_CMIP_CEDS_2014.nc
HEMCO: Opening /fsx/HEMCO/CEDS/v2018-08/2014/ALK4_pentanes-em-anthro_CMIP_CEDS_2014.nc
HEMCO: Opening /fsx/HEMCO/CEDS/v2018-08/2014/ALK4_hexanes-em-anthro_CMIP_CEDS_2014.nc
HEMCO: Opening /fsx/HEMCO/CEDS/v2018-08/2014/PRPE-em-anthro_CMIP_CEDS_2014.nc
HEMCO: Opening /fsx/HEMCO/CEDS/v2018-08/2014/BENZ-em-anthro_CMIP_CEDS_2014.nc
HEMCO: Opening /fsx/HEMCO/CEDS/v2018-08/2014/TOLU-em-anthro_CMIP_CEDS_2014.nc
HEMCO: Opening /fsx/HEMCO/CEDS/v2018-08/2014/XYLE-em-anthro_CMIP_CEDS_2014.nc
HEMCO: Opening /fsx/HEMCO/CEDS/v2018-08/2014/CH2O-em-anthro_CMIP_CEDS_2014.nc
HEMCO: Opening /fsx/HEMCO/CEDS/v2018-08/2014/ALD2-em-anthro_CMIP_CEDS_2014.nc
HEMCO: Opening /fsx/HEMCO/CEDS/v2018-08/2014/MEK-em-anthro_CMIP_CEDS_2014.nc
HEMCO: Opening /fsx/HEMCO/CEDS/v2018-08/2014/HCOOH-em-anthro_CMIP_CEDS_2014.nc
HEMCO: Opening /fsx/HEMCO/C2H6_2010/v2017-05/C2H6_global_anth_biof.201001.nc
HEMCO: Opening /fsx/HEMCO/NEI2011/v2017-02-MM/01/NEI11_0.1x0.1_201101_monmean.nc
HEMCO: Opening /fsx/HEMCO/NEI2011/v2017-02-MM/01/NEI11_0.1x0.1_201101_monmean_egu.nc
HEMCO: Opening /fsx/HEMCO/NEI2011/v2017-02-MM/01/NEI11_0.1x0.1_201101_monmean_egupk.nc
HEMCO: Opening /fsx/HEMCO/NEI2011/v2017-02-MM/01/NEI11_0.1x0.1_201101_monmean_oilgas.nc
HEMCO: Opening /fsx/HEMCO/NEI2011/v2017-02-MM/01/NEI11_0.1x0.1_201101_monmean_othpt.nc
HEMCO: Opening /fsx/HEMCO/NEI2011/v2017-02-MM/01/NEI11_0.1x0.1_201101_monmean_ptnonipm.nc
HEMCO: Opening /fsx/HEMCO/IODINE/v2017-09/CH3I_monthly_emissions_Ordonez_2012_COARDS.nc
HEMCO: Opening /fsx/HEMCO/IODINE/v2017-09/CH2I2_monthly_emissions_Ordonez_2012_COARDS.nc
HEMCO: Opening /fsx/HEMCO/IODINE/v2017-09/CH2ICl_monthly_emissions_Ordonez_2012_COARDS.nc
HEMCO: Opening /fsx/HEMCO/IODINE/v2017-09/CH2IBr_monthly_emissions_Ordonez_2012_COARDS.nc
HEMCO: Opening /fsx/HEMCO/CEDS/v2018-08/2014/CO-em-anthro_CMIP_CEDS_2014.nc
HEMCO: Opening /fsx/HEMCO/CEDS/v2018-08/2014/SO2-em-anthro_CMIP_CEDS_2014.nc
HEMCO: Opening /fsx/HEMCO/CEDS/v2018-08/2014/NH3-em-anthro_CMIP_CEDS_2014.nc
HEMCO: Opening /fsx/HEMCO/CEDS/v2018-08/2014/BC-em-anthro_CMIP_CEDS_2014.nc
HEMCO: Opening /fsx/HEMCO/CEDS/v2018-08/2014/OC-em-anthro_CMIP_CEDS_2014.nc
HEMCO: Opening /fsx/HEMCO/CEDS/v2018-08/2014/EOH-em-anthro_CMIP_CEDS_2014.nc
HEMCO: Opening /fsx/HEMCO/CEDS/v2018-08/2014/C2H6-em-anthro_CMIP_CEDS_2014.nc
HEMCO: Opening /fsx/HEMCO/CEDS/v2018-08/2014/C3H8-em-anthro_CMIP_CEDS_2014.nc
HEMCO: Opening /fsx/HEMCO/CEDS/v2018-08/2014/ALK4_butanes-em-anthro_CMIP_CEDS_2014.nc
HEMCO: Opening /fsx/HEMCO/CEDS/v2018-08/2014/ALK4_pentanes-em-anthro_CMIP_CEDS_2014.nc
HEMCO: Opening /fsx/HEMCO/CEDS/v2018-08/2014/ALK4_hexanes-em-anthro_CMIP_CEDS_2014.nc
HEMCO: Opening /fsx/HEMCO/CEDS/v2018-08/2014/PRPE-em-anthro_CMIP_CEDS_2014.nc
HEMCO: Opening /fsx/HEMCO/CEDS/v2018-08/2014/BENZ-em-anthro_CMIP_CEDS_2014.nc
HEMCO: Opening /fsx/HEMCO/CEDS/v2018-08/2014/TOLU-em-anthro_CMIP_CEDS_2014.nc
HEMCO: Opening /fsx/HEMCO/CEDS/v2018-08/2014/XYLE-em-anthro_CMIP_CEDS_2014.nc
HEMCO: Opening /fsx/HEMCO/CEDS/v2018-08/2014/CH2O-em-anthro_CMIP_CEDS_2014.nc
HEMCO: Opening /fsx/HEMCO/CEDS/v2018-08/2014/ALD2-em-anthro_CMIP_CEDS_2014.nc
HEMCO: Opening /fsx/HEMCO/CEDS/v2018-08/2014/MEK-em-anthro_CMIP_CEDS_2014.nc
HEMCO: Opening /fsx/HEMCO/CEDS/v2018-08/2014/HCOOH-em-anthro_CMIP_CEDS_2014.nc
HEMCO: Opening /fsx/HEMCO/CEDS/v2018-08/2014/NO-em-anthro_CMIP_CEDS_2014.nc
HEMCO: Opening /fsx/HEMCO/AEIC/v2015-01/AEIC.47L.gen.1x1.nc
HEMCO: Opening /fsx/HEMCO/ALD2/v2017-03/resp.geos.2x25.nc
HEMCO: Opening /fsx/HEMCO/DMS/v2015-07/DMS_lana.geos.1x1.nc
HEMCO: Opening /fsx/HEMCO/ALD2/v2017-03/ALD2_seawater.geos.2x25.nc
HEMCO: Opening /fsx/HEMCO/DUST_DEAD/v2014-07/dst_tvbds.geos.4x5.nc
HEMCO: Opening /fsx/HEMCO/DUST_DEAD/v2018-04/PM25FINE_ECLIPSE_2015.geos.2x25.nc
HEMCO: Opening /fsx/HEMCO/SOA/v2014-07/NVOC.geos.1x1.nc
HEMCO: Opening /fsx/HEMCO/GFED4/v2015-10/2016/GFED4_gen.025x025.201601.nc
HEMCO: Opening /fsx/HEMCO/UVALBEDO/v2015-03/uvalbedo.geos.2x25.nc
HEMCO: Opening /fsx/HEMCO/GMI/v2015-02/gmi.clim.ACET.geos5.2x25.nc
HEMCO: Opening /fsx/HEMCO/GMI/v2015-02/gmi.clim.ACTA.geos5.2x25.nc
HEMCO: Opening /fsx/HEMCO/GMI/v2015-02/gmi.clim.ALD2.geos5.2x25.nc
HEMCO: Opening /fsx/HEMCO/GMI/v2015-02/gmi.clim.ALK4.geos5.2x25.nc
HEMCO: Opening /fsx/HEMCO/GMI/v2015-02/gmi.clim.C2H6.geos5.2x25.nc
HEMCO: Opening /fsx/HEMCO/GMI/v2015-02/gmi.clim.C3H8.geos5.2x25.nc
HEMCO: Opening /fsx/HEMCO/GMI/v2015-02/gmi.clim.CCl4.geos5.2x25.nc
HEMCO: Opening /fsx/HEMCO/GMI/v2015-02/gmi.clim.CF2Cl2.geos5.2x25.nc
HEMCO: Opening /fsx/HEMCO/GMI/v2015-02/gmi.clim.CF2ClBr.geos5.2x25.nc
HEMCO: Opening /fsx/HEMCO/GMI/v2015-02/gmi.clim.CFC113.geos5.2x25.nc
HEMCO: Opening /fsx/HEMCO/GMI/v2015-02/gmi.clim.CFC114.geos5.2x25.nc
HEMCO: Opening /fsx/HEMCO/GMI/v2015-02/gmi.clim.CFC115.geos5.2x25.nc
HEMCO: Opening /fsx/HEMCO/GMI/v2015-02/gmi.clim.CFCl3.geos5.2x25.nc
HEMCO: Opening /fsx/HEMCO/GMI/v2015-02/gmi.clim.CH2O.geos5.2x25.nc
HEMCO: Opening /fsx/HEMCO/GMI/v2015-02/gmi.clim.CH3CCl3.geos5.2x25.nc
HEMCO: Opening /fsx/HEMCO/GMI/v2015-02/gmi.clim.CH3Cl.geos5.2x25.nc
HEMCO: Opening /fsx/HEMCO/GMI/v2015-02/gmi.clim.CH4.geos5.2x25.nc
HEMCO: Opening /fsx/HEMCO/GMI/v2015-02/gmi.clim.CO.geos5.2x25.nc
HEMCO: Opening /fsx/HEMCO/GMI/v2015-02/gmi.clim.Cl.geos5.2x25.nc
HEMCO: Opening /fsx/HEMCO/GMI/v2015-02/gmi.clim.Cl2.geos5.2x25.nc
HEMCO: Opening /fsx/HEMCO/GMI/v2015-02/gmi.clim.Cl2O2.geos5.2x25.nc
HEMCO: Opening /fsx/HEMCO/GMI/v2015-02/gmi.clim.ClO.geos5.2x25.nc
HEMCO: Opening /fsx/HEMCO/GMI/v2015-02/gmi.clim.EOH.geos5.2x25.nc
HEMCO: Opening /fsx/HEMCO/GMI/v2015-02/gmi.clim.GLYC.geos5.2x25.nc
HEMCO: Opening /fsx/HEMCO/GMI/v2015-02/gmi.clim.GLYX.geos5.2x25.nc
HEMCO: Opening /fsx/HEMCO/GMI/v2015-02/gmi.clim.H2402.geos5.2x25.nc
HEMCO: Opening /fsx/HEMCO/GMI/v2015-02/gmi.clim.H2O.geos5.2x25.nc
HEMCO: Opening /fsx/HEMCO/GMI/v2015-02/gmi.clim.H2O2.geos5.2x25.nc
HEMCO: Opening /fsx/HEMCO/GMI/v2015-02/gmi.clim.HAC.geos5.2x25.nc
HEMCO: Opening /fsx/HEMCO/GMI/v2015-02/gmi.clim.HCFC141b.geos5.2x25.nc
HEMCO: Opening /fsx/HEMCO/GMI/v2015-02/gmi.clim.HCFC142b.geos5.2x25.nc
HEMCO: Opening /fsx/HEMCO/GMI/v2015-02/gmi.clim.HCFC22.geos5.2x25.nc
HEMCO: Opening /fsx/HEMCO/GMI/v2015-02/gmi.clim.HCOOH.geos5.2x25.20170108.nc
HEMCO: Opening /fsx/HEMCO/GMI/v2015-02/gmi.clim.HCl.geos5.2x25.nc
HEMCO: Opening /fsx/HEMCO/GMI/v2015-02/gmi.clim.HNO2.geos5.2x25.nc
HEMCO: Opening /fsx/HEMCO/GMI/v2015-02/gmi.clim.HNO3.geos5.2x25.nc
HEMCO: Opening /fsx/HEMCO/GMI/v2015-02/gmi.clim.HNO4.geos5.2x25.nc
HEMCO: Opening /fsx/HEMCO/GMI/v2015-02/gmi.clim.HOCl.geos5.2x25.nc
HEMCO: Opening /fsx/HEMCO/GMI/v2015-02/gmi.clim.ISN1.geos5.2x25.nc
HEMCO: Opening /fsx/HEMCO/GMI/v2015-02/gmi.clim.ISOP.geos5.2x25.nc
HEMCO: Opening /fsx/HEMCO/GMI/v2015-02/gmi.clim.MACR.geos5.2x25.nc
HEMCO: Opening /fsx/HEMCO/GMI/v2015-02/gmi.clim.MAP.geos5.2x25.nc
HEMCO: Opening /fsx/HEMCO/GMI/v2015-02/gmi.clim.MEK.geos5.2x25.nc
HEMCO: Opening /fsx/HEMCO/GMI/v2015-02/gmi.clim.MGLY.geos5.2x25.nc
HEMCO: Opening /fsx/HEMCO/GMI/v2015-02/gmi.clim.MP.geos5.2x25.nc
HEMCO: Opening /fsx/HEMCO/GMI/v2015-02/gmi.clim.MVK.geos5.2x25.nc
HEMCO: Opening /fsx/HEMCO/GMI/v2015-02/gmi.clim.N2O.geos5.2x25.nc
HEMCO: Opening /fsx/HEMCO/GMI/v2015-02/gmi.clim.N2O5.geos5.2x25.nc
HEMCO: Opening /fsx/HEMCO/GMI/v2015-02/gmi.clim.NO.geos5.2x25.nc
HEMCO: Opening /fsx/HEMCO/GMI/v2015-02/gmi.clim.NO2.geos5.2x25.nc
HEMCO: Opening /fsx/HEMCO/GMI/v2015-02/gmi.clim.NO3.geos5.2x25.nc
HEMCO: Opening /fsx/HEMCO/GMI/v2015-02/gmi.clim.O3.geos5.2x25.nc
HEMCO: Opening /fsx/HEMCO/GMI/v2015-02/gmi.clim.OClO.geos5.2x25.nc
HEMCO: Opening /fsx/HEMCO/GMI/v2015-02/gmi.clim.PAN.geos5.2x25.nc
HEMCO: Opening /fsx/HEMCO/GMI/v2015-02/gmi.clim.NPMN.geos5.2x25.nc
HEMCO: Opening /fsx/HEMCO/GMI/v2015-02/gmi.clim.IPMN.geos5.2x25.nc
HEMCO: Opening /fsx/HEMCO/GMI/v2015-02/gmi.clim.PPN.geos5.2x25.nc
HEMCO: Opening /fsx/HEMCO/GMI/v2015-02/gmi.clim.PRPE.geos5.2x25.nc
HEMCO: Opening /fsx/HEMCO/GMI/v2015-02/gmi.clim.R4N2.geos5.2x25.nc
HEMCO: Opening /fsx/HEMCO/GMI/v2015-02/gmi.clim.RCHO.geos5.2x25.nc
HEMCO: Opening /fsx/HEMCO/GMI/v2015-02/gmi.clim.RIPA.geos5.2x25.nc
HEMCO: Opening /fsx/HEMCO/GMI/v2015-02/gmi.clim.RIPB.geos5.2x25.nc
HEMCO: Opening /fsx/HEMCO/GMI/v2015-02/gmi.clim.RIPD.geos5.2x25.nc
HEMCO: Opening /fsx/HEMCO/GMI/v2015-02/gmi.clim.OH.geos5.2x25.nc
HEMCO: Opening /fsx/HEMCO/NOAA_GMD/v2018-01/monthly.gridded.surface.methane.1979-2020.1x1.nc
HEMCO: Opening /fsx/HEMCO/GEIA/v2014-07/GEIA_monthscal.generic.1x1.nc
HEMCO: Opening /fsx/HEMCO/EMEP/v2015-03/EMEP.Seasonal.geos.1x1.nc
HEMCO: Opening /fsx/HEMCO/BROMINE/v2015-02/BromoCarb_Season.nc
HEMCO: Opening /fsx/HEMCO/EDGARv43/v2016-11/EDGAR_v43.Seasonal.1x1.nc
HEMCO: Opening /fsx/HEMCO/NEI2005/v2014-09/scaling/NEI99.dow.geos.1x1.nc
HEMCO: Opening /fsx/HEMCO/VOLCANO/v2015-02/2009/volc_so2_gen.1x1.47L.200901.nc
HEMCO: Opening /fsx/HEMCO/SOILNOX/v2014-07/soilNOx.fert_res.generic.05x05.nc
 vdinti: pbl height will be limited to bottom           25  model levels. top is
     431.250100000000       hpa
 =================================================
 W R F - G C   T I M E R S
    Domain           1 (Units: s)
 =================================================
  => Coupler Component                       0.055
   -- Physics & Parameterization             0.012
   -- Diagnostics Out                        0.000
  => GEOS-Chem Column                      150.845
  ===> Total Chemistry                     150.900
  => WRF                                    17.339
  ===> Total WRF-GC                        168.238
 max optd  1.9364301E+31
 max taucldi  3.3901959E-08
 max taucldw  6.6506968E-06
 Switching is not necessary as we are already
 in the right domain!
 GIGC_Chunk_Run: Running for in-PET grid #           1
 GIGC_Chunk_Run: Received new grid IM, JM, LM =          15           9
          49
 =================================================
 W R F - G C   T I M E R S
    Domain           1 (Units: s)
 =================================================
  => Coupler Component                       0.089
   -- Physics & Parameterization             0.023
   -- Diagnostics Out                        0.000
  => GEOS-Chem Column                      152.062
  ===> Total Chemistry                     152.151
  => WRF                                    40.085
  ===> Total WRF-GC                        192.236
 max optd  1.9364301E+31
 max taucldi  8.2833147E-08
 max taucldw  1.3504577E-05
 Switching is not necessary as we are already
 in the right domain!
 GIGC_Chunk_Run: Running for in-PET grid #           1
 GIGC_Chunk_Run: Received new grid IM, JM, LM =          15           9
          49
 =================================================
 W R F - G C   T I M E R S
    Domain           1 (Units: s)
 =================================================
  => Coupler Component                       0.119
   -- Physics & Parameterization             0.034
   -- Diagnostics Out                        0.000
  => GEOS-Chem Column                      153.341
  ===> Total Chemistry                     153.460
  => WRF                                    60.722
  ===> Total WRF-GC                        214.182
 max optd  1.9364301E+31
 max taucldi  1.6163361E-07
 max taucldw  2.0360434E-05
 Switching is not necessary as we are already
 in the right domain!
 GIGC_Chunk_Run: Running for in-PET grid #           1
 GIGC_Chunk_Run: Received new grid IM, JM, LM =          15           9
          49
 =================================================
 W R F - G C   T I M E R S
    Domain           1 (Units: s)
 =================================================
  => Coupler Component                       0.157
   -- Physics & Parameterization             0.045
   -- Diagnostics Out                        0.000
  => GEOS-Chem Column                      154.527
  ===> Total Chemistry                     154.684
  => WRF                                    79.529
  ===> Total WRF-GC                        234.214
 max optd  1.9364301E+31
 max taucldi  2.5962697E-07
 max taucldw  2.6587684E-05
 Switching is not necessary as we are already
 in the right domain!
 GIGC_Chunk_Run: Running for in-PET grid #           1
 GIGC_Chunk_Run: Received new grid IM, JM, LM =          15           9
          49
 =================================================
 W R F - G C   T I M E R S
    Domain           1 (Units: s)
 =================================================
  => Coupler Component                       0.196
   -- Physics & Parameterization             0.057
   -- Diagnostics Out                        0.000
  => GEOS-Chem Column                      155.690
  ===> Total Chemistry                     155.886
  => WRF                                    97.959
  ===> Total WRF-GC                        253.845
 max optd  1.9364301E+31
 max taucldi  3.6819097E-07
 max taucldw  3.1949861E-05
 Switching is not necessary as we are already
 in the right domain!
 GIGC_Chunk_Run: Running for in-PET grid #           1
 GIGC_Chunk_Run: Received new grid IM, JM, LM =          15           9
          49
 =================================================
 W R F - G C   T I M E R S
    Domain           1 (Units: s)
 =================================================
  => Coupler Component                       0.231
   -- Physics & Parameterization             0.068
   -- Diagnostics Out                        0.000
  => GEOS-Chem Column                      156.793
  ===> Total Chemistry                     157.024
  => WRF                                   116.295
  ===> Total WRF-GC                        273.319
 max optd  1.9364301E+31
 max taucldi  4.7732505E-07
 max taucldw  3.6308607E-05
 Switching is not necessary as we are already
 in the right domain!
 GIGC_Chunk_Run: Running for in-PET grid #           1
 GIGC_Chunk_Run: Received new grid IM, JM, LM =          15           9
          49
 =================================================
 W R F - G C   T I M E R S
    Domain           1 (Units: s)
 =================================================
  => Coupler Component                       0.268
   -- Physics & Parameterization             0.080
   -- Diagnostics Out                        0.000
  => GEOS-Chem Column                      157.851
  ===> Total Chemistry                     158.119
  => WRF                                   134.689
  ===> Total WRF-GC                        292.807
 max optd  1.9364301E+31
 max taucldi  5.8498193E-07
 max taucldw  4.0059418E-05
 Switching is not necessary as we are already
 in the right domain!
 GIGC_Chunk_Run: Running for in-PET grid #           1
 GIGC_Chunk_Run: Received new grid IM, JM, LM =          15           9
          49
 =================================================
 W R F - G C   T I M E R S
    Domain           1 (Units: s)
 =================================================
  => Coupler Component                       0.310
   -- Physics & Parameterization             0.091
   -- Diagnostics Out                        0.000
  => GEOS-Chem Column                      158.874
  ===> Total Chemistry                     159.184
  => WRF                                   153.048
  ===> Total WRF-GC                        312.232
 max optd  1.9364301E+31
 max taucldi  6.8951766E-07
 max taucldw  4.3307864E-05
 Switching is not necessary as we are already
 in the right domain!
 GIGC_Chunk_Run: Running for in-PET grid #           1
 GIGC_Chunk_Run: Received new grid IM, JM, LM =          15           9
          49
 =================================================
 W R F - G C   T I M E R S
    Domain           1 (Units: s)
 =================================================
  => Coupler Component                       0.350
   -- Physics & Parameterization             0.103
   -- Diagnostics Out                        0.000
  => GEOS-Chem Column                      159.913
  ===> Total Chemistry                     160.263
  => WRF                                   171.446
  ===> Total WRF-GC                        331.708
 max optd  1.9364301E+31
 max taucldi  7.8772263E-07
 max taucldw  4.6022051E-05
 Switching is not necessary as we are already
 in the right domain!
 GIGC_Chunk_Run: Running for in-PET grid #           1
 GIGC_Chunk_Run: Received new grid IM, JM, LM =          15           9
          49
 =================================================
 W R F - G C   T I M E R S
    Domain           1 (Units: s)
 =================================================
  => Coupler Component                       0.386
   -- Physics & Parameterization             0.114
   -- Diagnostics Out                        0.000
  => GEOS-Chem Column                      160.967
  ===> Total Chemistry                     161.353
  => WRF                                   189.888
  ===> Total WRF-GC                        351.241
 max optd  1.9364301E+31
 max taucldi  8.8639734E-07
 max taucldw  4.8676062E-05
 Switching is not necessary as we are already
 in the right domain!
 GIGC_Chunk_Run: Running for in-PET grid #           1
 GIGC_Chunk_Run: Received new grid IM, JM, LM =          15           9
          49
 =================================================
 W R F - G C   T I M E R S
    Domain           1 (Units: s)
 =================================================
  => Coupler Component                       0.425
   -- Physics & Parameterization             0.125
   -- Diagnostics Out                        0.000
  => GEOS-Chem Column                      162.020
  ===> Total Chemistry                     162.445
  => WRF                                   208.249
  ===> Total WRF-GC                        370.694
 max optd  1.9364301E+31
 max taucldi  1.0000816E-06
 max taucldw  5.1875588E-05
 Switching is not necessary as we are already
 in the right domain!
 GIGC_Chunk_Run: Running for in-PET grid #           1
 GIGC_Chunk_Run: Received new grid IM, JM, LM =          15           9
          49
 =================================================
 W R F - G C   T I M E R S
    Domain           1 (Units: s)
 =================================================
  => Coupler Component                       0.471
   -- Physics & Parameterization             0.136
   -- Diagnostics Out                        0.000
  => GEOS-Chem Column                      163.054
  ===> Total Chemistry                     163.525
  => WRF                                   226.474
  ===> Total WRF-GC                        389.999
 HOURLY EMISSIONS UPDATE TIME     3600.0       0.0
mediation_integrate: med_read_wrf_chem_emissions: Read emissions for time 2018-01-01_01:00:00
 max optd  1.9364301E+31
 max taucldi  1.1325905E-06
 max taucldw  5.5593726E-05
 Switching is not necessary as we are already
 in the right domain!
 GIGC_Chunk_Run: Running for in-PET grid #           1
 GIGC_Chunk_Run: Received new grid IM, JM, LM =          15           9
          49
 =================================================
 W R F - G C   T I M E R S
    Domain           1 (Units: s)
 =================================================
  => Coupler Component                       0.521
   -- Physics & Parameterization             0.147
   -- Diagnostics Out                        0.000
  => GEOS-Chem Column                      164.095
  ===> Total Chemistry                     164.616
  => WRF                                   244.798
  ===> Total WRF-GC                        409.415
 max optd  1.9364301E+31
 max taucldi  1.2796710E-06
 max taucldw  5.9487193E-05
 Switching is not necessary as we are already
 in the right domain!
 GIGC_Chunk_Run: Running for in-PET grid #           1
 GIGC_Chunk_Run: Received new grid IM, JM, LM =          15           9
          49
 =================================================
 W R F - G C   T I M E R S
    Domain           1 (Units: s)
 =================================================
  => Coupler Component                       0.571
   -- Physics & Parameterization             0.159
   -- Diagnostics Out                        0.000
  => GEOS-Chem Column                      165.141
  ===> Total Chemistry                     165.712
  => WRF                                   263.100
  ===> Total WRF-GC                        428.812
 max optd  1.9364301E+31
 max taucldi  1.4357441E-06
 max taucldw  6.3286054E-05
 Switching is not necessary as we are already
 in the right domain!
 GIGC_Chunk_Run: Running for in-PET grid #           1
 GIGC_Chunk_Run: Received new grid IM, JM, LM =          15           9
          49
 =================================================
 W R F - G C   T I M E R S
    Domain           1 (Units: s)
 =================================================
  => Coupler Component                       0.621
   -- Physics & Parameterization             0.170
   -- Diagnostics Out                        0.000
  => GEOS-Chem Column                      166.180
  ===> Total Chemistry                     166.801
  => WRF                                   281.282
  ===> Total WRF-GC                        448.082
 max optd  1.9364301E+31
 max taucldi  1.6051704E-06
 max taucldw  6.7091154E-05
 Switching is not necessary as we are already
 in the right domain!
 GIGC_Chunk_Run: Running for in-PET grid #           1
 GIGC_Chunk_Run: Received new grid IM, JM, LM =          15           9
          49
 =================================================
 W R F - G C   T I M E R S
    Domain           1 (Units: s)
 =================================================
  => Coupler Component                       0.669
   -- Physics & Parameterization             0.182
   -- Diagnostics Out                        0.000
  => GEOS-Chem Column                      167.241
  ===> Total Chemistry                     167.910
  => WRF                                   299.552
  ===> Total WRF-GC                        467.462
 max optd  1.9364301E+31
 max taucldi  1.7885577E-06
 max taucldw  7.0900409E-05
 Switching is not necessary as we are already
 in the right domain!
 GIGC_Chunk_Run: Running for in-PET grid #           1
 GIGC_Chunk_Run: Received new grid IM, JM, LM =          15           9
          49
 =================================================
 W R F - G C   T I M E R S
    Domain           1 (Units: s)
 =================================================
  => Coupler Component                       0.714
   -- Physics & Parameterization             0.193
   -- Diagnostics Out                        0.000
  => GEOS-Chem Column                      168.306
  ===> Total Chemistry                     169.020
  => WRF                                   317.763
  ===> Total WRF-GC                        486.784
 max optd  1.9364301E+31
 max taucldi  7.8151026E-04
 max taucldw  7.4242569E-05
 Switching is not necessary as we are already
 in the right domain!
 GIGC_Chunk_Run: Running for in-PET grid #           1
 GIGC_Chunk_Run: Received new grid IM, JM, LM =          15           9
          49
 =================================================
 W R F - G C   T I M E R S
    Domain           1 (Units: s)
 =================================================
  => Coupler Component                       0.754
   -- Physics & Parameterization             0.205
   -- Diagnostics Out                        0.000
  => GEOS-Chem Column                      169.387
  ===> Total Chemistry                     170.141
  => WRF                                   335.936
  ===> Total WRF-GC                        506.077
 max optd  1.9364301E+31
 max taucldi  3.1194803E-03
 max taucldw  7.6548458E-05
 Switching is not necessary as we are already
 in the right domain!
 GIGC_Chunk_Run: Running for in-PET grid #           1
 GIGC_Chunk_Run: Received new grid IM, JM, LM =          15           9
          49
 =================================================
 W R F - G C   T I M E R S
    Domain           1 (Units: s)
 =================================================
  => Coupler Component                       0.797
   -- Physics & Parameterization             0.216
   -- Diagnostics Out                        0.000
  => GEOS-Chem Column                      170.462
  ===> Total Chemistry                     171.260
  => WRF                                   354.151
  ===> Total WRF-GC                        525.411
 max optd  1.9364301E+31
 max taucldi  3.5796009E-03
 max taucldw  7.7306686E-05
 Switching is not necessary as we are already
 in the right domain!
 GIGC_Chunk_Run: Running for in-PET grid #           1
 GIGC_Chunk_Run: Received new grid IM, JM, LM =          15           9
          49
 =================================================
 W R F - G C   T I M E R S
    Domain           1 (Units: s)
 =================================================
  => Coupler Component                       0.852
   -- Physics & Parameterization             0.227
   -- Diagnostics Out                        0.000
  => GEOS-Chem Column                      171.519
  ===> Total Chemistry                     172.371
  => WRF                                   372.469
  ===> Total WRF-GC                        544.841
 max optd  1.9364301E+31
 max taucldi  4.7033257E-03
 max taucldw  7.7130971E-05
 Switching is not necessary as we are already
 in the right domain!
 GIGC_Chunk_Run: Running for in-PET grid #           1
 GIGC_Chunk_Run: Received new grid IM, JM, LM =          15           9
          49
 =================================================
 W R F - G C   T I M E R S
    Domain           1 (Units: s)
 =================================================
  => Coupler Component                       0.891
   -- Physics & Parameterization             0.239
   -- Diagnostics Out                        0.000
  => GEOS-Chem Column                      172.603
  ===> Total Chemistry                     173.495
  => WRF                                   390.554
  ===> Total WRF-GC                        564.049
 max optd  1.9364301E+31
 max taucldi  2.8675070E-03
 max taucldw  7.6526754E-05
 Switching is not necessary as we are already
 in the right domain!
 GIGC_Chunk_Run: Running for in-PET grid #           1
 GIGC_Chunk_Run: Received new grid IM, JM, LM =          15           9
          49
 =================================================
 W R F - G C   T I M E R S
    Domain           1 (Units: s)
 =================================================
  => Coupler Component                       0.942
   -- Physics & Parameterization             0.250
   -- Diagnostics Out                        0.000
  => GEOS-Chem Column                      173.663
  ===> Total Chemistry                     174.605
  => WRF                                   408.690
  ===> Total WRF-GC                        583.295
 max optd  1.9364301E+31
 max taucldi  1.0807050E-03
 max taucldw  7.5942138E-05
 Switching is not necessary as we are already
 in the right domain!
 GIGC_Chunk_Run: Running for in-PET grid #           1
 GIGC_Chunk_Run: Received new grid IM, JM, LM =          15           9
          49
 =================================================
 W R F - G C   T I M E R S
    Domain           1 (Units: s)
 =================================================
  => Coupler Component                       0.995
   -- Physics & Parameterization             0.262
   -- Diagnostics Out                        0.000
  => GEOS-Chem Column                      174.715
  ===> Total Chemistry                     175.709
  => WRF                                   426.952
  ===> Total WRF-GC                        602.661
 max optd  1.9364301E+31
 max taucldi  2.6929032E-04
 max taucldw  7.4872885E-05
 Switching is not necessary as we are already
 in the right domain!
 GIGC_Chunk_Run: Running for in-PET grid #           1
 GIGC_Chunk_Run: Received new grid IM, JM, LM =          15           9
          49
 =================================================
 W R F - G C   T I M E R S
    Domain           1 (Units: s)
 =================================================
  => Coupler Component                       1.041
   -- Physics & Parameterization             0.273
   -- Diagnostics Out                        0.000
  => GEOS-Chem Column                      175.780
  ===> Total Chemistry                     176.822
  => WRF                                   445.114
  ===> Total WRF-GC                        621.936
 HOURLY EMISSIONS UPDATE TIME     7200.0       0.0
mediation_integrate: med_read_wrf_chem_emissions: Read emissions for time 2018-01-01_02:00:00
 max optd  1.9364301E+31
 max taucldi  1.2851966E-04
 max taucldw  7.3250965E-05
 Switching is not necessary as we are already
 in the right domain!
 GIGC_Chunk_Run: Running for in-PET grid #           1
 GIGC_Chunk_Run: Received new grid IM, JM, LM =          15           9
          49
 =================================================
 W R F - G C   T I M E R S
    Domain           1 (Units: s)
 =================================================
  => Coupler Component                       1.091
   -- Physics & Parameterization             0.285
   -- Diagnostics Out                        0.000
  => GEOS-Chem Column                      176.836
  ===> Total Chemistry                     177.927
  => WRF                                   463.294
  ===> Total WRF-GC                        641.222
 max optd  1.9364301E+31
 max taucldi  1.4855836E-04
 max taucldw  7.1412185E-05
 Switching is not necessary as we are already
 in the right domain!
 GIGC_Chunk_Run: Running for in-PET grid #           1
 GIGC_Chunk_Run: Received new grid IM, JM, LM =          15           9
          49
 =================================================
 W R F - G C   T I M E R S
    Domain           1 (Units: s)
 =================================================
  => Coupler Component                       1.140
   -- Physics & Parameterization             0.296
   -- Diagnostics Out                        0.000
  => GEOS-Chem Column                      177.893
  ===> Total Chemistry                     179.033
  => WRF                                   481.495
  ===> Total WRF-GC                        660.528
 max optd  1.9364301E+31
 max taucldi  1.6567794E-04
 max taucldw  6.9607690E-05
 Switching is not necessary as we are already
 in the right domain!
 GIGC_Chunk_Run: Running for in-PET grid #           1
 GIGC_Chunk_Run: Received new grid IM, JM, LM =          15           9
          49
 =================================================
 W R F - G C   T I M E R S
    Domain           1 (Units: s)
 =================================================
  => Coupler Component                       1.179
   -- Physics & Parameterization             0.307
   -- Diagnostics Out                        0.000
  => GEOS-Chem Column                      178.968
  ===> Total Chemistry                     180.147
  => WRF                                   499.600
  ===> Total WRF-GC                        679.747
 max optd  1.9364301E+31
 max taucldi  1.8310492E-04
 max taucldw  6.7699504E-05
 Switching is not necessary as we are already
 in the right domain!
 GIGC_Chunk_Run: Running for in-PET grid #           1
 GIGC_Chunk_Run: Received new grid IM, JM, LM =          15           9
          49
 =================================================
 W R F - G C   T I M E R S
    Domain           1 (Units: s)
 =================================================
  => Coupler Component                       1.220
   -- Physics & Parameterization             0.318
   -- Diagnostics Out                        0.000
  => GEOS-Chem Column                      180.055
  ===> Total Chemistry                     181.276
  => WRF                                   517.684
  ===> Total WRF-GC                        698.960
 max optd  1.9364301E+31
 max taucldi  1.9901368E-04
 max taucldw  6.5474851E-05
 Switching is not necessary as we are already
 in the right domain!
 GIGC_Chunk_Run: Running for in-PET grid #           1
 GIGC_Chunk_Run: Received new grid IM, JM, LM =          15           9
          49
 =================================================
 W R F - G C   T I M E R S
    Domain           1 (Units: s)
 =================================================
  => Coupler Component                       1.273
   -- Physics & Parameterization             0.330
   -- Diagnostics Out                        0.000
  => GEOS-Chem Column                      181.105
  ===> Total Chemistry                     182.378
  => WRF                                   535.775
  ===> Total WRF-GC                        718.153
 max optd  1.9364301E+31
 max taucldi  2.0811439E-04
 max taucldw  6.2797699E-05
 Switching is not necessary as we are already
 in the right domain!
 GIGC_Chunk_Run: Running for in-PET grid #           1
 GIGC_Chunk_Run: Received new grid IM, JM, LM =          15           9
          49
 =================================================
 W R F - G C   T I M E R S
    Domain           1 (Units: s)
 =================================================
  => Coupler Component                       1.326
   -- Physics & Parameterization             0.342
   -- Diagnostics Out                        0.000
  => GEOS-Chem Column                      182.163
  ===> Total Chemistry                     183.489
  => WRF                                   553.893
  ===> Total WRF-GC                        737.381
 max optd  1.9364301E+31
 max taucldi  2.1264986E-04
 max taucldw  5.9481568E-05
 Switching is not necessary as we are already
 in the right domain!
 GIGC_Chunk_Run: Running for in-PET grid #           1
 GIGC_Chunk_Run: Received new grid IM, JM, LM =          15           9
          49
 =================================================
 W R F - G C   T I M E R S
    Domain           1 (Units: s)
 =================================================
  => Coupler Component                       1.381
   -- Physics & Parameterization             0.353
   -- Diagnostics Out                        0.000
  => GEOS-Chem Column                      183.215
  ===> Total Chemistry                     184.596
  => WRF                                   572.017
  ===> Total WRF-GC                        756.613
 max optd  1.9364301E+31
 max taucldi  2.2220377E-04
 max taucldw  5.5093144E-05
 Switching is not necessary as we are already
 in the right domain!
 GIGC_Chunk_Run: Running for in-PET grid #           1
 GIGC_Chunk_Run: Received new grid IM, JM, LM =          15           9
          49
 =================================================
 W R F - G C   T I M E R S
    Domain           1 (Units: s)
 =================================================
  => Coupler Component                       1.433
   -- Physics & Parameterization             0.364
   -- Diagnostics Out                        0.000
  => GEOS-Chem Column                      184.269
  ===> Total Chemistry                     185.702
  => WRF                                   590.075
  ===> Total WRF-GC                        775.777
 max optd  1.9364301E+31
 max taucldi  2.3393043E-04
 max taucldw  5.5887300E-05
 Switching is not necessary as we are already
 in the right domain!
 GIGC_Chunk_Run: Running for in-PET grid #           1
 GIGC_Chunk_Run: Received new grid IM, JM, LM =          15           9
          49
 =================================================
 W R F - G C   T I M E R S
    Domain           1 (Units: s)
 =================================================
  => Coupler Component                       1.482
   -- Physics & Parameterization             0.376
   -- Diagnostics Out                        0.000
  => GEOS-Chem Column                      185.337
  ===> Total Chemistry                     186.819
  => WRF                                   608.147
  ===> Total WRF-GC                        794.966
 max optd  1.9364301E+31
 max taucldi  2.4189179E-04
 max taucldw  5.6892557E-05
 Switching is not necessary as we are already
 in the right domain!
 GIGC_Chunk_Run: Running for in-PET grid #           1
 GIGC_Chunk_Run: Received new grid IM, JM, LM =          15           9
          49
 =================================================
 W R F - G C   T I M E R S
    Domain           1 (Units: s)
 =================================================
  => Coupler Component                       1.526
   -- Physics & Parameterization             0.387
   -- Diagnostics Out                        0.000
  => GEOS-Chem Column                      186.414
  ===> Total Chemistry                     187.940
  => WRF                                   626.277
  ===> Total WRF-GC                        814.218
 max optd  1.9364301E+31
 max taucldi  2.4207869E-04
 max taucldw  5.7838308E-05
 Switching is not necessary as we are already
 in the right domain!
 GIGC_Chunk_Run: Running for in-PET grid #           1
 GIGC_Chunk_Run: Received new grid IM, JM, LM =          15           9
          49
 =================================================
 W R F - G C   T I M E R S
    Domain           1 (Units: s)
 =================================================
  => Coupler Component                       1.581
   -- Physics & Parameterization             0.398
   -- Diagnostics Out                        0.000
  => GEOS-Chem Column                      187.469
  ===> Total Chemistry                     189.050
  => WRF                                   644.298
  ===> Total WRF-GC                        833.348
 max optd  1.9364301E+31
 max taucldi  2.3236581E-04
 max taucldw  5.8705216E-05
 Switching is not necessary as we are already
 in the right domain!
 GIGC_Chunk_Run: Running for in-PET grid #           1
 GIGC_Chunk_Run: Received new grid IM, JM, LM =          15           9
          49
 =================================================
 W R F - G C   T I M E R S
    Domain           1 (Units: s)
 =================================================
  => Coupler Component                       1.625
   -- Physics & Parameterization             0.409
   -- Diagnostics Out                        0.000
  => GEOS-Chem Column                      188.543
  ===> Total Chemistry                     190.168
  => WRF                                   662.357
  ===> Total WRF-GC                        852.525
 HOURLY EMISSIONS UPDATE TIME    10800.0       0.0
mediation_integrate: med_read_wrf_chem_emissions: Read emissions for time 2018-01-01_03:00:00
 max optd  1.9364301E+31
 max taucldi  2.1804262E-04
 max taucldw  5.9503862E-05
 Switching is not necessary as we are already
 in the right domain!
 GIGC_Chunk_Run: Running for in-PET grid #           1
 GIGC_Chunk_Run: Received new grid IM, JM, LM =          15           9
          49
 =================================================
 W R F - G C   T I M E R S
    Domain           1 (Units: s)
 =================================================
  => Coupler Component                       1.675
   -- Physics & Parameterization             0.421
   -- Diagnostics Out                        0.000
  => GEOS-Chem Column                      189.606
  ===> Total Chemistry                     191.281
  => WRF                                   680.454
  ===> Total WRF-GC                        871.735
 max optd  1.9364301E+31
 max taucldi  2.1515573E-04
 max taucldw  6.0278442E-05
 Switching is not necessary as we are already
 in the right domain!
 GIGC_Chunk_Run: Running for in-PET grid #           1
 GIGC_Chunk_Run: Received new grid IM, JM, LM =          15           9
          49
 =================================================
 W R F - G C   T I M E R S
    Domain           1 (Units: s)
 =================================================
  => Coupler Component                       1.726
   -- Physics & Parameterization             0.433
   -- Diagnostics Out                        0.000
  => GEOS-Chem Column                      190.667
  ===> Total Chemistry                     192.393
  => WRF                                   698.513
  ===> Total WRF-GC                        890.906
 max optd  1.9364301E+31
 max taucldi  2.1391538E-04
 max taucldw  6.1021023E-05
 Switching is not necessary as we are already
 in the right domain!
 GIGC_Chunk_Run: Running for in-PET grid #           1
 GIGC_Chunk_Run: Received new grid IM, JM, LM =          15           9
          49
 =================================================
 W R F - G C   T I M E R S
    Domain           1 (Units: s)
 =================================================
  => Coupler Component                       1.777
   -- Physics & Parameterization             0.444
   -- Diagnostics Out                        0.000
  => GEOS-Chem Column                      191.725
  ===> Total Chemistry                     193.502
  => WRF                                   716.591
  ===> Total WRF-GC                        910.093
 max optd  1.9364301E+31
 max taucldi  2.1618979E-04
 max taucldw  6.1719875E-05
 Switching is not necessary as we are already
 in the right domain!
 GIGC_Chunk_Run: Running for in-PET grid #           1
 GIGC_Chunk_Run: Received new grid IM, JM, LM =          15           9
          49
 =================================================
 W R F - G C   T I M E R S
    Domain           1 (Units: s)
 =================================================
  => Coupler Component                       1.828
   -- Physics & Parameterization             0.455
   -- Diagnostics Out                        0.000
  => GEOS-Chem Column                      192.792
  ===> Total Chemistry                     194.620
  => WRF                                   734.659
  ===> Total WRF-GC                        929.279
 max optd  1.9364301E+31
 max taucldi  2.0547562E-04
 max taucldw  6.2260413E-05
 Switching is not necessary as we are already
 in the right domain!
 GIGC_Chunk_Run: Running for in-PET grid #           1
 GIGC_Chunk_Run: Received new grid IM, JM, LM =          15           9
          49
 =================================================
 W R F - G C   T I M E R S
    Domain           1 (Units: s)
 =================================================
  => Coupler Component                       1.883
   -- Physics & Parameterization             0.466
   -- Diagnostics Out                        0.000
  => GEOS-Chem Column                      193.836
  ===> Total Chemistry                     195.720
  => WRF                                   752.691
  ===> Total WRF-GC                        948.411
 max optd  1.9364301E+31
 max taucldi  2.0036464E-04
 max taucldw  6.2589861E-05
 Switching is not necessary as we are already
 in the right domain!
 GIGC_Chunk_Run: Running for in-PET grid #           1
 GIGC_Chunk_Run: Received new grid IM, JM, LM =          15           9
          49
 =================================================
 W R F - G C   T I M E R S
    Domain           1 (Units: s)
 =================================================
  => Coupler Component                       1.931
   -- Physics & Parameterization             0.478
   -- Diagnostics Out                        0.000
  => GEOS-Chem Column                      194.906
  ===> Total Chemistry                     196.837
  => WRF                                   771.041
  ===> Total WRF-GC                        967.878
 max optd  1.9364301E+31
 max taucldi  1.9876033E-04
 max taucldw  6.2741485E-05
 Switching is not necessary as we are already
 in the right domain!
 GIGC_Chunk_Run: Running for in-PET grid #           1
 GIGC_Chunk_Run: Received new grid IM, JM, LM =          15           9
          49
 =================================================
 W R F - G C   T I M E R S
    Domain           1 (Units: s)
 =================================================
  => Coupler Component                       1.978
   -- Physics & Parameterization             0.489
   -- Diagnostics Out                        0.000
  => GEOS-Chem Column                      195.977
  ===> Total Chemistry                     197.955
  => WRF                                   789.180
  ===> Total WRF-GC                        987.135
 max optd  1.9364301E+31
 max taucldi  1.9452754E-04
 max taucldw  6.2790758E-05
 Switching is not necessary as we are already
 in the right domain!
 GIGC_Chunk_Run: Running for in-PET grid #           1
 GIGC_Chunk_Run: Received new grid IM, JM, LM =          15           9
          49
 =================================================
 W R F - G C   T I M E R S
    Domain           1 (Units: s)
 =================================================
  => Coupler Component                       2.020
   -- Physics & Parameterization             0.500
   -- Diagnostics Out                        0.000
  => GEOS-Chem Column                      197.062
  ===> Total Chemistry                     199.082
  => WRF                                   807.175
  ===> Total WRF-GC                       1006.257
 max optd  1.9364301E+31
 max taucldi  1.8246497E-04
 max taucldw  6.2799256E-05
 Switching is not necessary as we are already
 in the right domain!
 GIGC_Chunk_Run: Running for in-PET grid #           1
 GIGC_Chunk_Run: Received new grid IM, JM, LM =          15           9
          49
 =================================================
 W R F - G C   T I M E R S
    Domain           1 (Units: s)
 =================================================
  => Coupler Component                       2.064
   -- Physics & Parameterization             0.511
   -- Diagnostics Out                        0.000
  => GEOS-Chem Column                      198.136
  ===> Total Chemistry                     200.201
  => WRF                                   825.357
  ===> Total WRF-GC                       1025.557
 max optd  1.9364301E+31
 max taucldi  1.5961780E-04
 max taucldw  6.2791412E-05
 Switching is not necessary as we are already
 in the right domain!
 GIGC_Chunk_Run: Running for in-PET grid #           1
 GIGC_Chunk_Run: Received new grid IM, JM, LM =          15           9
          49
 =================================================
 W R F - G C   T I M E R S
    Domain           1 (Units: s)
 =================================================
  => Coupler Component                       2.116
   -- Physics & Parameterization             0.523
   -- Diagnostics Out                        0.000
  => GEOS-Chem Column                      199.177
  ===> Total Chemistry                     201.293
  => WRF                                   843.461
  ===> Total WRF-GC                       1044.754
 max optd  1.9364301E+31
 max taucldi  1.3470498E-04
 max taucldw  6.2748775E-05
 Switching is not necessary as we are already
 in the right domain!
 GIGC_Chunk_Run: Running for in-PET grid #           1
 GIGC_Chunk_Run: Received new grid IM, JM, LM =          15           9
          49
 =================================================
 W R F - G C   T I M E R S
    Domain           1 (Units: s)
 =================================================
  => Coupler Component                       2.163
   -- Physics & Parameterization             0.534
   -- Diagnostics Out                        0.000
  => GEOS-Chem Column                      200.241
  ===> Total Chemistry                     202.405
  => WRF                                   861.547
  ===> Total WRF-GC                       1063.951
 max optd  1.9364301E+31
 max taucldi  1.1058860E-04
 max taucldw  6.2729996E-05
 Switching is not necessary as we are already
 in the right domain!
 GIGC_Chunk_Run: Running for in-PET grid #           1
 GIGC_Chunk_Run: Received new grid IM, JM, LM =          15           9
          49
 =================================================
 W R F - G C   T I M E R S
    Domain           1 (Units: s)
 =================================================
  => Coupler Component                       2.215
   -- Physics & Parameterization             0.545
   -- Diagnostics Out                        0.000
  => GEOS-Chem Column                      201.286
  ===> Total Chemistry                     203.501
  => WRF                                   879.673
  ===> Total WRF-GC                       1083.175
 HOURLY EMISSIONS UPDATE TIME    14400.0       0.0
mediation_integrate: med_read_wrf_chem_emissions: Read emissions for time 2018-01-01_04:00:00
 max optd  1.9364301E+31
 max taucldi  1.2561950E-04
 max taucldw  6.2789361E-05
 Switching is not necessary as we are already
 in the right domain!
 GIGC_Chunk_Run: Running for in-PET grid #           1
 GIGC_Chunk_Run: Received new grid IM, JM, LM =          15           9
          49
 =================================================
 W R F - G C   T I M E R S
    Domain           1 (Units: s)
 =================================================
  => Coupler Component                       2.266
   -- Physics & Parameterization             0.557
   -- Diagnostics Out                        0.000
  => GEOS-Chem Column                      202.334
  ===> Total Chemistry                     204.600
  => WRF                                   897.794
  ===> Total WRF-GC                       1102.394
 max optd  1.9364301E+31
 max taucldi  1.3874032E-04
 max taucldw  6.2957733E-05
 Switching is not necessary as we are already
 in the right domain!
 GIGC_Chunk_Run: Running for in-PET grid #           1
 GIGC_Chunk_Run: Received new grid IM, JM, LM =          15           9
          49
 =================================================
 W R F - G C   T I M E R S
    Domain           1 (Units: s)
 =================================================
  => Coupler Component                       2.316
   -- Physics & Parameterization             0.568
   -- Diagnostics Out                        0.000
  => GEOS-Chem Column                      203.371
  ===> Total Chemistry                     205.688
  => WRF                                   915.917
  ===> Total WRF-GC                       1121.605
 max optd  1.9364301E+31
 max taucldi  1.4625791E-04
 max taucldw  6.3199077E-05
 Switching is not necessary as we are already
 in the right domain!
 GIGC_Chunk_Run: Running for in-PET grid #           1
 GIGC_Chunk_Run: Received new grid IM, JM, LM =          15           9
          49
 =================================================
 W R F - G C   T I M E R S
    Domain           1 (Units: s)
 =================================================
  => Coupler Component                       2.367
   -- Physics & Parameterization             0.580
   -- Diagnostics Out                        0.000
  => GEOS-Chem Column                      204.421
  ===> Total Chemistry                     206.788
  => WRF                                   934.142
  ===> Total WRF-GC                       1140.931
 max optd  1.9364301E+31
 max taucldi  1.5206508E-04
 max taucldw  6.3429281E-05
 Switching is not necessary as we are already
 in the right domain!
 GIGC_Chunk_Run: Running for in-PET grid #           1
 GIGC_Chunk_Run: Received new grid IM, JM, LM =          15           9
          49
 =================================================
 W R F - G C   T I M E R S
    Domain           1 (Units: s)
 =================================================
  => Coupler Component                       2.419
   -- Physics & Parameterization             0.591
   -- Diagnostics Out                        0.000
  => GEOS-Chem Column                      205.472
  ===> Total Chemistry                     207.891
  => WRF                                   952.245
  ===> Total WRF-GC                       1160.136
 max optd  1.9364301E+31
 max taucldi  1.5713881E-04
 max taucldw  6.3602398E-05
 Switching is not necessary as we are already
 in the right domain!
 GIGC_Chunk_Run: Running for in-PET grid #           1
 GIGC_Chunk_Run: Received new grid IM, JM, LM =          15           9
          49
 =================================================
 W R F - G C   T I M E R S
    Domain           1 (Units: s)
 =================================================
  => Coupler Component                       2.456
   -- Physics & Parameterization             0.602
   -- Diagnostics Out                        0.000
  => GEOS-Chem Column                      206.499
  ===> Total Chemistry                     208.955
  => WRF                                   970.364
  ===> Total WRF-GC                       1179.318
 max optd  1.9364301E+31
 max taucldi  1.6250672E-04
 max taucldw  6.3776853E-05
 Switching is not necessary as we are already
 in the right domain!
 GIGC_Chunk_Run: Running for in-PET grid #           1
 GIGC_Chunk_Run: Received new grid IM, JM, LM =          15           9
          49
 =================================================
 W R F - G C   T I M E R S
    Domain           1 (Units: s)
 =================================================
  => Coupler Component                       2.508
   -- Physics & Parameterization             0.614
   -- Diagnostics Out                        0.000
  => GEOS-Chem Column                      207.534
  ===> Total Chemistry                     210.042
  => WRF                                   988.548
  ===> Total WRF-GC                       1198.591
 max optd  1.9364301E+31
 max taucldi  1.6796424E-04
 max taucldw  6.3928630E-05
 Switching is not necessary as we are already
 in the right domain!
 GIGC_Chunk_Run: Running for in-PET grid #           1
 GIGC_Chunk_Run: Received new grid IM, JM, LM =          15           9
          49
 =================================================
 W R F - G C   T I M E R S
    Domain           1 (Units: s)
 =================================================
  => Coupler Component                       2.562
   -- Physics & Parameterization             0.626
   -- Diagnostics Out                        0.000
  => GEOS-Chem Column                      208.580
  ===> Total Chemistry                     211.142
  => WRF                                  1006.736
  ===> Total WRF-GC                       1217.878
 max optd  1.9364301E+31
 max taucldi  1.7301089E-04
 max taucldw  6.3949738E-05
 Switching is not necessary as we are already
 in the right domain!
 GIGC_Chunk_Run: Running for in-PET grid #           1
 GIGC_Chunk_Run: Received new grid IM, JM, LM =          15           9
          49
 =================================================
 W R F - G C   T I M E R S
    Domain           1 (Units: s)
 =================================================
  => Coupler Component                       2.604
   -- Physics & Parameterization             0.637
   -- Diagnostics Out                        0.000
  => GEOS-Chem Column                      209.657
  ===> Total Chemistry                     212.262
  => WRF                                  1024.838
  ===> Total WRF-GC                       1237.100
 max optd  1.9364301E+31
 max taucldi  1.8366205E-04
 max taucldw  6.3761188E-05
 Switching is not necessary as we are already
 in the right domain!
 GIGC_Chunk_Run: Running for in-PET grid #           1
 GIGC_Chunk_Run: Received new grid IM, JM, LM =          15           9
          49
 =================================================
 W R F - G C   T I M E R S
    Domain           1 (Units: s)
 =================================================
  => Coupler Component                       2.655
   -- Physics & Parameterization             0.649
   -- Diagnostics Out                        0.000
  => GEOS-Chem Column                      210.710
  ===> Total Chemistry                     213.365
  => WRF                                  1042.940
  ===> Total WRF-GC                       1256.305
 max optd  1.9364301E+31
 max taucldi  1.9247671E-04
 max taucldw  6.3367246E-05
 Switching is not necessary as we are already
 in the right domain!
 GIGC_Chunk_Run: Running for in-PET grid #           1
 GIGC_Chunk_Run: Received new grid IM, JM, LM =          15           9
          49
 =================================================
 W R F - G C   T I M E R S
    Domain           1 (Units: s)
 =================================================
  => Coupler Component                       2.700
   -- Physics & Parameterization             0.660
   -- Diagnostics Out                        0.000
  => GEOS-Chem Column                      211.780
  ===> Total Chemistry                     214.480
  => WRF                                  1061.050
  ===> Total WRF-GC                       1275.530
 max optd  1.9364301E+31
 max taucldi  1.9918050E-04
 max taucldw  6.2884683E-05
 Switching is not necessary as we are already
 in the right domain!
 GIGC_Chunk_Run: Running for in-PET grid #           1
 GIGC_Chunk_Run: Received new grid IM, JM, LM =          15           9
          49
 =================================================
 W R F - G C   T I M E R S
    Domain           1 (Units: s)
 =================================================
  => Coupler Component                       2.745
   -- Physics & Parameterization             0.670
   -- Diagnostics Out                        0.000
  => GEOS-Chem Column                      212.805
  ===> Total Chemistry                     215.550
  => WRF                                  1079.091
  ===> Total WRF-GC                       1294.642
 max optd  1.9364301E+31
 max taucldi  2.1186932E-04
 max taucldw  6.2407686E-05
 Switching is not necessary as we are already
 in the right domain!
 GIGC_Chunk_Run: Running for in-PET grid #           1
 GIGC_Chunk_Run: Received new grid IM, JM, LM =          15           9
          49
 =================================================
 W R F - G C   T I M E R S
    Domain           1 (Units: s)
 =================================================
  => Coupler Component                       2.800
   -- Physics & Parameterization             0.681
   -- Diagnostics Out                        0.000
  => GEOS-Chem Column                      213.844
  ===> Total Chemistry                     216.644
  => WRF                                  1097.196
  ===> Total WRF-GC                       1313.839
 HOURLY EMISSIONS UPDATE TIME    18000.0       0.0
mediation_integrate: med_read_wrf_chem_emissions: Read emissions for time 2018-01-01_05:00:00
 max optd  1.9364301E+31
 max taucldi  2.2256217E-04
 max taucldw  6.1987485E-05
 Switching is not necessary as we are already
 in the right domain!
 GIGC_Chunk_Run: Running for in-PET grid #           1
 GIGC_Chunk_Run: Received new grid IM, JM, LM =          15           9
          49
 =================================================
 W R F - G C   T I M E R S
    Domain           1 (Units: s)
 =================================================
  => Coupler Component                       2.850
   -- Physics & Parameterization             0.692
   -- Diagnostics Out                        0.000
  => GEOS-Chem Column                      214.873
  ===> Total Chemistry                     217.723
  => WRF                                  1115.345
  ===> Total WRF-GC                       1333.068
 max optd  1.9364301E+31
 max taucldi  3.1370166E-04
 max taucldw  6.1653649E-05
 Switching is not necessary as we are already
 in the right domain!
 GIGC_Chunk_Run: Running for in-PET grid #           1
 GIGC_Chunk_Run: Received new grid IM, JM, LM =          15           9
          49
 =================================================
 W R F - G C   T I M E R S
    Domain           1 (Units: s)
 =================================================
  => Coupler Component                       2.900
   -- Physics & Parameterization             0.704
   -- Diagnostics Out                        0.000
  => GEOS-Chem Column                      215.910
  ===> Total Chemistry                     218.810
  => WRF                                  1133.459
  ===> Total WRF-GC                       1352.269
 max optd  1.9364301E+31
 max taucldi  7.4305391E-04
 max taucldw  6.1453487E-05
 Switching is not necessary as we are already
 in the right domain!
 GIGC_Chunk_Run: Running for in-PET grid #           1
 GIGC_Chunk_Run: Received new grid IM, JM, LM =          15           9
          49
 =================================================
 W R F - G C   T I M E R S
    Domain           1 (Units: s)
 =================================================
  => Coupler Component                       2.952
   -- Physics & Parameterization             0.715
   -- Diagnostics Out                        0.000
  => GEOS-Chem Column                      216.949
  ===> Total Chemistry                     219.901
  => WRF                                  1151.562
  ===> Total WRF-GC                       1371.463
 max optd  1.9364301E+31
 max taucldi  1.6834516E-03
 max taucldw  6.1437888E-05
 Switching is not necessary as we are already
 in the right domain!
 GIGC_Chunk_Run: Running for in-PET grid #           1
 GIGC_Chunk_Run: Received new grid IM, JM, LM =          15           9
          49
 =================================================
 W R F - G C   T I M E R S
    Domain           1 (Units: s)
 =================================================
  => Coupler Component                       3.003
   -- Physics & Parameterization             0.726
   -- Diagnostics Out                        0.000
  => GEOS-Chem Column                      217.991
  ===> Total Chemistry                     220.994
  => WRF                                  1169.690
  ===> Total WRF-GC                       1390.684
 max optd  1.9364301E+31
 max taucldi  3.5986311E-03
 max taucldw  6.1668718E-05
 Switching is not necessary as we are already
 in the right domain!
 GIGC_Chunk_Run: Running for in-PET grid #           1
 GIGC_Chunk_Run: Received new grid IM, JM, LM =          15           9
          49
 =================================================
 W R F - G C   T I M E R S
    Domain           1 (Units: s)
 =================================================
  => Coupler Component                       3.055
   -- Physics & Parameterization             0.738
   -- Diagnostics Out                        0.000
  => GEOS-Chem Column                      219.036
  ===> Total Chemistry                     222.091
  => WRF                                  1187.867
  ===> Total WRF-GC                       1409.958
 max optd  1.9364301E+31
 max taucldi  6.5826643E-03
 max taucldw  6.2169791E-05
 Switching is not necessary as we are already
 in the right domain!
 GIGC_Chunk_Run: Running for in-PET grid #           1
 GIGC_Chunk_Run: Received new grid IM, JM, LM =          15           9
          49
 =================================================
 W R F - G C   T I M E R S
    Domain           1 (Units: s)
 =================================================
  => Coupler Component                       3.106
   -- Physics & Parameterization             0.750
   -- Diagnostics Out                        0.000
  => GEOS-Chem Column                      220.067
  ===> Total Chemistry                     223.173
  => WRF                                  1205.938
  ===> Total WRF-GC                       1429.111
 max optd  1.9364301E+31
 max taucldi  1.0092266E-02
 max taucldw  6.2938088E-05
 Switching is not necessary as we are already
 in the right domain!
 GIGC_Chunk_Run: Running for in-PET grid #           1
 GIGC_Chunk_Run: Received new grid IM, JM, LM =          15           9
          49
 =================================================
 W R F - G C   T I M E R S
    Domain           1 (Units: s)
 =================================================
  => Coupler Component                       3.156
   -- Physics & Parameterization             0.761
   -- Diagnostics Out                        0.000
  => GEOS-Chem Column                      221.126
  ===> Total Chemistry                     224.282
  => WRF                                  1224.148
  ===> Total WRF-GC                       1448.430
 max optd  1.9364301E+31
 max taucldi  1.3142609E-02
 max taucldw  6.3944179E-05
 Switching is not necessary as we are already
 in the right domain!
 GIGC_Chunk_Run: Running for in-PET grid #           1
 GIGC_Chunk_Run: Received new grid IM, JM, LM =          15           9
          49
 =================================================
 W R F - G C   T I M E R S
    Domain           1 (Units: s)
 =================================================
  => Coupler Component                       3.208
   -- Physics & Parameterization             0.773
   -- Diagnostics Out                        0.000
  => GEOS-Chem Column                      222.168
  ===> Total Chemistry                     225.375
  => WRF                                  1242.227
  ===> Total WRF-GC                       1467.603
 max optd  1.9364301E+31
 max taucldi  1.5396125E-02
 max taucldw  6.5034030E-05
 Switching is not necessary as we are already
 in the right domain!
 GIGC_Chunk_Run: Running for in-PET grid #           1
 GIGC_Chunk_Run: Received new grid IM, JM, LM =          15           9
          49
 =================================================
 W R F - G C   T I M E R S
    Domain           1 (Units: s)
 =================================================
  => Coupler Component                       3.262
   -- Physics & Parameterization             0.784
   -- Diagnostics Out                        0.000
  => GEOS-Chem Column                      223.220
  ===> Total Chemistry                     226.481
  => WRF                                  1260.390
  ===> Total WRF-GC                       1486.871
 max optd  1.9364301E+31
 max taucldi  1.6722815E-02
 max taucldw  6.5964676E-05
 Switching is not necessary as we are already
 in the right domain!
 GIGC_Chunk_Run: Running for in-PET grid #           1
 GIGC_Chunk_Run: Received new grid IM, JM, LM =          15           9
          49
 =================================================
 W R F - G C   T I M E R S
    Domain           1 (Units: s)
 =================================================
  => Coupler Component                       3.313
   -- Physics & Parameterization             0.796
   -- Diagnostics Out                        0.000
  => GEOS-Chem Column                      224.271
  ===> Total Chemistry                     227.584
  => WRF                                  1278.770
  ===> Total WRF-GC                       1506.354
 max optd  1.9364301E+31
 max taucldi  1.6290925E-02
 max taucldw  6.6553410E-05
 Switching is not necessary as we are already
 in the right domain!
 GIGC_Chunk_Run: Running for in-PET grid #           1
 GIGC_Chunk_Run: Received new grid IM, JM, LM =          15           9
          49
 =================================================
 W R F - G C   T I M E R S
    Domain           1 (Units: s)
 =================================================
  => Coupler Component                       3.364
   -- Physics & Parameterization             0.808
   -- Diagnostics Out                        0.000
  => GEOS-Chem Column                      225.306
  ===> Total Chemistry                     228.670
  => WRF                                  1296.882
  ===> Total WRF-GC                       1525.553
 max optd  1.9364301E+31
 max taucldi  1.3310597E-02
 max taucldw  6.6735920E-05
 Switching is not necessary as we are already
 in the right domain!
 GIGC_Chunk_Run: Running for in-PET grid #           1
 GIGC_Chunk_Run: Received new grid IM, JM, LM =          15           9
          49
 =================================================
 W R F - G C   T I M E R S
    Domain           1 (Units: s)
 =================================================
  => Coupler Component                       3.413
   -- Physics & Parameterization             0.819
   -- Diagnostics Out                        0.000
  => GEOS-Chem Column                      226.344
  ===> Total Chemistry                     229.757
  => WRF                                  1315.012
  ===> Total WRF-GC                       1544.769
 HOURLY EMISSIONS UPDATE TIME    21600.0       0.0
mediation_integrate: med_read_wrf_chem_emissions: Read emissions for time 2018-01-01_06:00:00
 max optd  1.9364301E+31
 max taucldi  9.3863998E-03
 max taucldw  6.6595305E-05
 Switching is not necessary as we are already
 in the right domain!
 GIGC_Chunk_Run: Running for in-PET grid #           1
 GIGC_Chunk_Run: Received new grid IM, JM, LM =          15           9
          49
 =================================================
 W R F - G C   T I M E R S
    Domain           1 (Units: s)
 =================================================
  => Coupler Component                       3.458
   -- Physics & Parameterization             0.830
   -- Diagnostics Out                        0.000
  => GEOS-Chem Column                      227.383
  ===> Total Chemistry                     230.841
  => WRF                                  1773.692
  ===> Total WRF-GC                       2004.533
 max optd  1.9364301E+31
 max taucldi  9.0356180E-03
 max taucldw  6.6954293E-05
 Switching is not necessary as we are already
 in the right domain!
 GIGC_Chunk_Run: Running for in-PET grid #           1
 GIGC_Chunk_Run: Received new grid IM, JM, LM =          15           9
          49
 =================================================
 W R F - G C   T I M E R S
    Domain           1 (Units: s)
 =================================================
  => Coupler Component                       3.508
   -- Physics & Parameterization             0.841
   -- Diagnostics Out                        0.000
  => GEOS-Chem Column                      228.432
  ===> Total Chemistry                     231.940
  => WRF                                  1791.833
  ===> Total WRF-GC                       2023.773
 max optd  1.9364301E+31
 max taucldi  7.9495572E-03
 max taucldw  6.9251299E-05
 Switching is not necessary as we are already
 in the right domain!
 GIGC_Chunk_Run: Running for in-PET grid #           1
 GIGC_Chunk_Run: Received new grid IM, JM, LM =          15           9
          49
 =================================================
 W R F - G C   T I M E R S
    Domain           1 (Units: s)
 =================================================
  => Coupler Component                       3.558
   -- Physics & Parameterization             0.852
   -- Diagnostics Out                        0.000
  => GEOS-Chem Column                      229.472
  ===> Total Chemistry                     233.030
  => WRF                                  1810.095
  ===> Total WRF-GC                       2043.125
 max optd  1.9364301E+31
 max taucldi  6.6799629E-03
 max taucldw  3.2487355E-02
 Switching is not necessary as we are already
 in the right domain!
 GIGC_Chunk_Run: Running for in-PET grid #           1
 GIGC_Chunk_Run: Received new grid IM, JM, LM =          15           9
          49
 =================================================
 W R F - G C   T I M E R S
    Domain           1 (Units: s)
 =================================================
  => Coupler Component                       3.604
[...]
  => GEOS-Chem Column                      276.335
  ===> Total Chemistry                     282.094
  => WRF                                  2628.052
  ===> Total WRF-GC                       2910.146
 HOURLY EMISSIONS UPDATE TIME    36000.0       0.0
mediation_integrate: med_read_wrf_chem_emissions: Read emissions for time 2018-01-01_10:00:00
 max optd  1.9364301E+31
 max taucldi  7.0120301E-04
 max taucldw   1.159335    
 Switching is not necessary as we are already
 in the right domain!
 GIGC_Chunk_Run: Running for in-PET grid #           1
 GIGC_Chunk_Run: Received new grid IM, JM, LM =          15           9
          49
 =================================================
 W R F - G C   T I M E R S
    Domain           1 (Units: s)
 =================================================
  => Coupler Component                       5.805
   -- Physics & Parameterization             1.351
   -- Diagnostics Out                        0.000
  => GEOS-Chem Column                      277.368
  ===> Total Chemistry                     283.173
  => WRF                                  2646.308
  ===> Total WRF-GC                       2929.481
 max optd  1.9364301E+31
 max taucldi  7.1675575E-04
 max taucldw   1.140820    
 Switching is not necessary as we are already
 in the right domain!
 GIGC_Chunk_Run: Running for in-PET grid #           1
 GIGC_Chunk_Run: Received new grid IM, JM, LM =          15           9
          49
 =================================================
 W R F - G C   T I M E R S
    Domain           1 (Units: s)
 =================================================
  => Coupler Component                       5.851
   -- Physics & Parameterization             1.362
   -- Diagnostics Out                        0.000
  => GEOS-Chem Column                      278.410
  ===> Total Chemistry                     284.260
  => WRF                                  2664.463
  ===> Total WRF-GC                       2948.723
 max optd  1.9364301E+31
 max taucldi  2.6806758E-03
 max taucldw   1.124751    
 Switching is not necessary as we are already
 in the right domain!
 GIGC_Chunk_Run: Running for in-PET grid #           1
 GIGC_Chunk_Run: Received new grid IM, JM, LM =          15           9
          49
 =================================================
 W R F - G C   T I M E R S
    Domain           1 (Units: s)
 =================================================
  => Coupler Component                       5.892
   -- Physics & Parameterization             1.372
   -- Diagnostics Out                        0.000
  => GEOS-Chem Column                      279.426
  ===> Total Chemistry                     285.318
  => WRF                                  2682.596
  ===> Total WRF-GC                       2967.914
 max optd  1.9364301E+31
 max taucldi  3.6577582E-03
 max taucldw   1.107599    
 Switching is not necessary as we are already
 in the right domain!
 GIGC_Chunk_Run: Running for in-PET grid #           1
 GIGC_Chunk_Run: Received new grid IM, JM, LM =          15           9
          49
 =================================================
 W R F - G C   T I M E R S
    Domain           1 (Units: s)
 =================================================
  => Coupler Component                       5.943
   -- Physics & Parameterization             1.384
   -- Diagnostics Out                        0.000
  => GEOS-Chem Column                      280.455
  ===> Total Chemistry                     286.398
  => WRF                                  2700.875
  ===> Total WRF-GC                       2987.273
 max optd  1.9364301E+31
 max taucldi  3.7140278E-03
 max taucldw   1.093032    
 Switching is not necessary as we are already
 in the right domain!
 GIGC_Chunk_Run: Running for in-PET grid #           1
 GIGC_Chunk_Run: Received new grid IM, JM, LM =          15           9
          49
 =================================================
 W R F - G C   T I M E R S
    Domain           1 (Units: s)
 =================================================
  => Coupler Component                       5.992
   -- Physics & Parameterization             1.395
   -- Diagnostics Out                        0.000
  => GEOS-Chem Column                      281.490
  ===> Total Chemistry                     287.482
  => WRF                                  2719.069
  ===> Total WRF-GC                       3006.551
 max optd  1.9364301E+31
 max taucldi  3.6717290E-03
 max taucldw   1.107449    
 Switching is not necessary as we are already
 in the right domain!
 GIGC_Chunk_Run: Running for in-PET grid #           1
 GIGC_Chunk_Run: Received new grid IM, JM, LM =          15           9
          49
 =================================================
 W R F - G C   T I M E R S
    Domain           1 (Units: s)
 =================================================
  => Coupler Component                       6.042
   -- Physics & Parameterization             1.406
   -- Diagnostics Out                        0.000
  => GEOS-Chem Column                      282.524
  ===> Total Chemistry                     288.566
  => WRF                                  2737.173
  ===> Total WRF-GC                       3025.739
 max optd  1.9364301E+31
 max taucldi  3.6486539E-03
 max taucldw   1.122453    
 Switching is not necessary as we are already
 in the right domain!
 GIGC_Chunk_Run: Running for in-PET grid #           1
 GIGC_Chunk_Run: Received new grid IM, JM, LM =          15           9
          49
 =================================================
 W R F - G C   T I M E R S
    Domain           1 (Units: s)
 =================================================
  => Coupler Component                       6.086
   -- Physics & Parameterization             1.417
   -- Diagnostics Out                        0.000
  => GEOS-Chem Column                      283.549
  ===> Total Chemistry                     289.634
  => WRF                                  2755.354
  ===> Total WRF-GC                       3044.989
 max optd  1.9364301E+31
 max taucldi  3.6352971E-03
 max taucldw   1.136913    
 Switching is not necessary as we are already
 in the right domain!
 GIGC_Chunk_Run: Running for in-PET grid #           1
 GIGC_Chunk_Run: Received new grid IM, JM, LM =          15           9
          49
 =================================================
 W R F - G C   T I M E R S
    Domain           1 (Units: s)
 =================================================
  => Coupler Component                       6.135
   -- Physics & Parameterization             1.427
   -- Diagnostics Out                        0.000
  => GEOS-Chem Column                      284.612
  ===> Total Chemistry                     290.747
  => WRF                                  2773.554
  ===> Total WRF-GC                       3064.301
 max optd  1.9364301E+31
 max taucldi  3.7584757E-03
 max taucldw   1.148946    
 Switching is not necessary as we are already
 in the right domain!
 GIGC_Chunk_Run: Running for in-PET grid #           1
 GIGC_Chunk_Run: Received new grid IM, JM, LM =          15           9
          49
 =================================================
 W R F - G C   T I M E R S
    Domain           1 (Units: s)
 =================================================
  => Coupler Component                       6.179
   -- Physics & Parameterization             1.438
   -- Diagnostics Out                        0.000
  => GEOS-Chem Column                      285.639
  ===> Total Chemistry                     291.817
  => WRF                                  2791.645
  ===> Total WRF-GC                       3083.462
 max optd  1.9364301E+31
 max taucldi  3.9014330E-03
 max taucldw   1.163478    
 Switching is not necessary as we are already
 in the right domain!
 GIGC_Chunk_Run: Running for in-PET grid #           1
 GIGC_Chunk_Run: Received new grid IM, JM, LM =          15           9
          49
 =================================================
 W R F - G C   T I M E R S
    Domain           1 (Units: s)
 =================================================
  => Coupler Component                       6.229
   -- Physics & Parameterization             1.449
   -- Diagnostics Out                        0.000
  => GEOS-Chem Column                      286.666
  ===> Total Chemistry                     292.896
  => WRF                                  2809.891
  ===> Total WRF-GC                       3102.786
 max optd  1.9364301E+31
 max taucldi  3.8327121E-03
 max taucldw   1.188374    
 Switching is not necessary as we are already
 in the right domain!
 GIGC_Chunk_Run: Running for in-PET grid #           1
 GIGC_Chunk_Run: Received new grid IM, JM, LM =          15           9
          49
 =================================================
 W R F - G C   T I M E R S
    Domain           1 (Units: s)
 =================================================
  => Coupler Component                       6.279
   -- Physics & Parameterization             1.460
   -- Diagnostics Out                        0.000
  => GEOS-Chem Column                      287.699
  ===> Total Chemistry                     293.978
  => WRF                                  2828.051
  ===> Total WRF-GC                       3122.029
 max optd  1.9364301E+31
 max taucldi  3.7612494E-03
 max taucldw   1.207597    
 Switching is not necessary as we are already
 in the right domain!
 GIGC_Chunk_Run: Running for in-PET grid #           1
 GIGC_Chunk_Run: Received new grid IM, JM, LM =          15           9
          49
 =================================================
 W R F - G C   T I M E R S
    Domain           1 (Units: s)
 =================================================
  => Coupler Component                       6.326
   -- Physics & Parameterization             1.471
   -- Diagnostics Out                        0.000
  => GEOS-Chem Column                      288.772
  ===> Total Chemistry                     295.098
  => WRF                                  2846.264
  ===> Total WRF-GC                       3141.362
 HOURLY EMISSIONS UPDATE TIME    39600.0       0.0
mediation_integrate: med_read_wrf_chem_emissions: Read emissions for time 2018-01-01_11:00:00
 max optd  1.9364301E+31
 max taucldi  3.6478380E-03
 max taucldw   1.219302    
 Switching is not necessary as we are already
 in the right domain!
 GIGC_Chunk_Run: Running for in-PET grid #           1
 GIGC_Chunk_Run: Received new grid IM, JM, LM =          15           9
          49
 =================================================
 W R F - G C   T I M E R S
    Domain           1 (Units: s)
 =================================================
  => Coupler Component                       6.369
   -- Physics & Parameterization             1.481
   -- Diagnostics Out                        0.000
  => GEOS-Chem Column                      289.806
  ===> Total Chemistry                     296.176
  => WRF                                  2864.414
  ===> Total WRF-GC                       3160.589
 max optd  1.9364301E+31
 max taucldi  3.5910103E-03
 max taucldw   1.224894    
 Switching is not necessary as we are already
 in the right domain!
 GIGC_Chunk_Run: Running for in-PET grid #           1
 GIGC_Chunk_Run: Received new grid IM, JM, LM =          15           9
          49
 =================================================
 W R F - G C   T I M E R S
    Domain           1 (Units: s)
 =================================================
  => Coupler Component                       6.421
   -- Physics & Parameterization             1.492
   -- Diagnostics Out                        0.000
  => GEOS-Chem Column                      290.864
  ===> Total Chemistry                     297.285
  => WRF                                  2882.559
  ===> Total WRF-GC                       3179.844
 max optd  1.9364301E+31
 max taucldi  3.7023488E-03
 max taucldw   1.227856    
 Switching is not necessary as we are already
 in the right domain!
 GIGC_Chunk_Run: Running for in-PET grid #           1
 GIGC_Chunk_Run: Received new grid IM, JM, LM =          15           9
          49
 =================================================
 W R F - G C   T I M E R S
    Domain           1 (Units: s)
 =================================================
  => Coupler Component                       6.465
   -- Physics & Parameterization             1.503
   -- Diagnostics Out                        0.000
  => GEOS-Chem Column                      291.892
  ===> Total Chemistry                     298.357
  => WRF                                  2900.768
  ===> Total WRF-GC                       3199.124
 max optd  1.9364301E+31
 max taucldi  3.7257902E-03
 max taucldw   1.224722    
 Switching is not necessary as we are already
 in the right domain!
 GIGC_Chunk_Run: Running for in-PET grid #           1
 GIGC_Chunk_Run: Received new grid IM, JM, LM =          15           9
          49
 =================================================
 W R F - G C   T I M E R S
    Domain           1 (Units: s)
 =================================================
  => Coupler Component                       6.515
   -- Physics & Parameterization             1.514
   -- Diagnostics Out                        0.000
  => GEOS-Chem Column                      292.939
  ===> Total Chemistry                     299.453
  => WRF                                  2919.066
  ===> Total WRF-GC                       3218.520
 max optd  1.9364301E+31
 max taucldi  3.7284021E-03
 max taucldw   1.318018    
 Switching is not necessary as we are already
 in the right domain!
 GIGC_Chunk_Run: Running for in-PET grid #           1
 GIGC_Chunk_Run: Received new grid IM, JM, LM =          15           9
          49
 =================================================
 W R F - G C   T I M E R S
    Domain           1 (Units: s)
 =================================================
  => Coupler Component                       6.557
   -- Physics & Parameterization             1.525
   -- Diagnostics Out                        0.000
  => GEOS-Chem Column                      293.964
  ===> Total Chemistry                     300.521
  => WRF                                  2937.465
  ===> Total WRF-GC                       3237.986
 max optd  1.9364301E+31
 max taucldi  4.2940644E-03
 max taucldw   1.448456    
 Switching is not necessary as we are already
 in the right domain!
 GIGC_Chunk_Run: Running for in-PET grid #           1
 GIGC_Chunk_Run: Received new grid IM, JM, LM =          15           9
          49
 =================================================
 W R F - G C   T I M E R S
    Domain           1 (Units: s)
 =================================================
  => Coupler Component                       6.609
   -- Physics & Parameterization             1.536
   -- Diagnostics Out                        0.000
  => GEOS-Chem Column                      295.019
  ===> Total Chemistry                     301.627
  => WRF                                  2955.898
  ===> Total WRF-GC                       3257.526
 max optd  1.9364301E+31
 max taucldi  4.2921733E-03
 max taucldw   1.535051    
 Switching is not necessary as we are already
 in the right domain!
 GIGC_Chunk_Run: Running for in-PET grid #           1
 GIGC_Chunk_Run: Received new grid IM, JM, LM =          15           9
          49
 =================================================
 W R F - G C   T I M E R S
    Domain           1 (Units: s)
 =================================================
  => Coupler Component                       6.649
   -- Physics & Parameterization             1.547
   -- Diagnostics Out                        0.000
  => GEOS-Chem Column                      296.045
  ===> Total Chemistry                     302.694
  => WRF                                  2974.410
  ===> Total WRF-GC                       3277.104
 max optd  1.9364301E+31
 max taucldi  4.0978268E-03
 max taucldw   1.590649    
 Switching is not necessary as we are already
 in the right domain!
 GIGC_Chunk_Run: Running for in-PET grid #           1
 GIGC_Chunk_Run: Received new grid IM, JM, LM =          15           9
          49
 =================================================
 W R F - G C   T I M E R S
    Domain           1 (Units: s)
 =================================================
  => Coupler Component                       6.694
   -- Physics & Parameterization             1.558
   -- Diagnostics Out                        0.000
  => GEOS-Chem Column                      297.080
  ===> Total Chemistry                     303.775
  => WRF                                  2993.006
  ===> Total WRF-GC                       3296.781
 max optd  1.9364301E+31
 max taucldi  3.8687519E-03
 max taucldw   1.623023    
 Switching is not necessary as we are already
 in the right domain!
 GIGC_Chunk_Run: Running for in-PET grid #           1
 GIGC_Chunk_Run: Received new grid IM, JM, LM =          15           9
          49
 =================================================
 W R F - G C   T I M E R S
    Domain           1 (Units: s)
 =================================================
  => Coupler Component                       6.746
   -- Physics & Parameterization             1.569
   -- Diagnostics Out                        0.000
  => GEOS-Chem Column                      298.119
  ===> Total Chemistry                     304.865
  => WRF                                  3011.702
  ===> Total WRF-GC                       3316.567
 max optd  1.9364301E+31
 max taucldi  3.5479823E-03
 max taucldw   1.636068    
 Switching is not necessary as we are already
 in the right domain!
 GIGC_Chunk_Run: Running for in-PET grid #           1
 GIGC_Chunk_Run: Received new grid IM, JM, LM =          15           9
          49
 =================================================
 W R F - G C   T I M E R S
    Domain           1 (Units: s)
 =================================================
  => Coupler Component                       6.786
   -- Physics & Parameterization             1.580
   -- Diagnostics Out                        0.000
  => GEOS-Chem Column                      299.144
  ===> Total Chemistry                     305.930
  => WRF                                  3030.586
  ===> Total WRF-GC                       3336.516
 max optd  1.9364301E+31
 max taucldi  3.1488515E-03
 max taucldw   1.638070    
 Switching is not necessary as we are already
 in the right domain!
 GIGC_Chunk_Run: Running for in-PET grid #           1
 GIGC_Chunk_Run: Received new grid IM, JM, LM =          15           9
          49
 =================================================
 W R F - G C   T I M E R S
    Domain           1 (Units: s)
 =================================================
  => Coupler Component                       6.839
   -- Physics & Parameterization             1.591
   -- Diagnostics Out                        0.000
  => GEOS-Chem Column                      300.191
  ===> Total Chemistry                     307.030
  => WRF                                  3049.438
  ===> Total WRF-GC                       3356.468
 max optd  1.9364301E+31
 max taucldi  3.4435182E-03
 max taucldw   1.632591    
 Switching is not necessary as we are already
 in the right domain!
 GIGC_Chunk_Run: Running for in-PET grid #           1
 GIGC_Chunk_Run: Received new grid IM, JM, LM =          15           9
          49
 =================================================
 W R F - G C   T I M E R S
    Domain           1 (Units: s)
 =================================================
  => Coupler Component                       6.882
   -- Physics & Parameterization             1.602
   -- Diagnostics Out                        0.000
  => GEOS-Chem Column                      301.224
  ===> Total Chemistry                     308.105
  => WRF                                  3068.169
  ===> Total WRF-GC                       3376.275
d01 2018-01-01_12:00:00 wrf: SUCCESS COMPLETE WRF
