taskid: 981 hostname: ip-172-31-3-130
Quilting with   1 groups of   0 I/O tasks.
 Ntasks in X           64 , ntasks in Y           72
--- WARNING: traj_opt is zero, but num_traj is not zero; setting num_traj to zero.
--- NOTE: sst_update is 0, setting io_form_auxinput4 = 0 and auxinput4_interval = 0 for all domains
--- NOTE: grid_fdda is 0 for domain      1, setting gfdda interval and ending time to 0 for that domain.
--- NOTE: both grid_sfdda and pxlsm_soil_nudge are 0 for domain      1, setting sgfdda interval and ending time to 0 for that domain.
--- NOTE: obs_nudge_opt is 0 for domain      1, setting obs nudging interval and ending time to 0 for that domain.
--- NOTE: bl_pbl_physics /= 4, implies mfshconv must be 0, resetting
Need MYNN PBL for icloud_bl = 1, resetting to 0
*************************************
No physics suite selected.
Physics options will be used directly from the namelist.
*************************************
--- NOTE: RRTMG radiation is in use, setting:  levsiz=59, alevsiz=12, no_src_types=6
--- NOTE: num_soil_layers has been set to      4
WRF V3.9.1.1 MODEL
 *************************************
 Parent domain
 ids,ide,jds,jde            1         950           1         650
 ims,ime,jms,jme          309         337         130         152
 ips,ipe,jps,jpe          316         330         137         145
 *************************************
DYNAMICS OPTION: Eulerian Mass Coordinate
   alloc_space_field: domain            1 ,              203623800  bytes allocated
  med_initialdata_input: calling input_input
Max map factor in domain 1 =  1.40. Scale the dt in the model accordingly.
INPUT LandUse = "USGS"
 LANDUSE TYPE = "USGS" FOUND          33  CATEGORIES           2  SEASONS WATER CATEGORY =           16  SNOW CATEGORY =           24
INITIALIZE THREE Noah LSM RELATED TABLES
*****************************************************************
  __          _______  ______       _____  _____ _    _ _____
  \ \        / /  __ \|  ____|     / ____|/ ____| |  | |  __ \
   \ \  /\  / /| |__) | |__ ______| |  __| |    | |__| | |__) |
    \ \/  \/ / |  _  /|  __|______| | |_ | |    |  __  |  ___/
     \  /\  /  | | \ \| |         | |__| | |____| |  | | |
      \/  \/   |_|  \_\_|          \_____|\_____|_|  |_|_|
*****************************************************************
         WRF-GC MODEL, VERSION 1811.11 - WRF BINDINGS
 For errors, suggestions & feedback email linhaipeng@pku.edu.cn
*****************************************************************
    This is domain            1
 ### GIGC_Stateful_Mod: Root CPU, after READ_INPUT_FILE
  Linoz Data:  O3 climatology :                  z*=10, 12, ..., 58                             2.700E-08 1.083E-05
  Linoz Data:  Temperature climatology :         z*=10, 12, ..., 58                             1.859E+02 2.904E+02
  Linoz Data:  Column O3 above box climalology : z*=10, 12, ..., 58                             7.538E-02 3.770E+02
  Linoz Data:  P-L O3 climatology (mr/s):        z*=10, 12, ..., 58                            -1.590E-10 2.835E-11
  Linoz Data:  d(P-L)/dO3 (1/s) :                z*=10, 12, ..., 58                            -8.386E-04 7.556E-09
  Linoz Data:  d(P-L)/dT (mr/K) :                z*=10, 12, ..., 58                            -5.742E-12 4.615E-14
  Linoz Data:  d(P-L)/d(column O3) (mr/DU) :     z*=10, 12, ..., 58                            -1.921E-12 5.038E-10
 ### GIGC_Stateful_Mod: Root CPU, after LINOZ_READ
 %%%%%%%%% GIGC IN-PET GRID SWITCHING HACKS %%%%%%%%%
     (Not very) Proudly brought to you by hplin      
 Some debug information:
 ID:           1
 IM, JM, LM:          15           9          49  will be set as PAR
 Allocs: CMN T GC F
 RC at entry-point:           0
 %%%%%%%%%%%%%%%%%%%%%%%%%%%%%%%%%%%%%%%%%%%%%%%%%%%%
 No need to switch HcoState for ID           1
 Exit RC:            0
 %%%%%%%%%    FINISHED GIGC_Switch_Dims    %%%%%%%%%
 GIGC_Chunk_Init: Received new grid IM, JM, LM =          15           9
          49
     ### GIGC_INIT_SIMULATION: after Input_Opt% setups
     ### GIGC_INIT_SIMULATION: after GC_Init_All
     ### GIGC_INIT_SIMULATION: after GC_Init_Extra
     ### GIGC_INIT_SIMULATION: after INIT_FJX
 # GIGC_CHUNK_MOD: after SV save, ID =           1
 WRFGC chemics_init: Following information regarding Input_Opt% (for all doms)
 After domain           1
 HPC:  T
 LPRT:  F
 DoConv:  T
 DoDryDep:  T
 DoEmis:  T
 DoChem:  T
 DoTurb:  T
 DoWetDep:  T

 tropopause_init: DONE intialized domain            1

 mediation_integrate: med_read_wrf_chem_emissions: Open file wrfchemi_00z_d01
 HOURLY EMISSIONS UPDATE TIME        0.0       0.0
mediation_integrate: med_read_wrf_chem_emissions: Read emissions for time 2018-01-01_00:00:00
open_aux_u : error opening wrffirechemi_d01_2018-01-01_00:00:00 for reading. 100
open_aux_u : error opening wrfchemi_gocart_bg_d01 for reading. 100
d01 2018-01-01_00:00:00 Input data processed for aux input   8 for domain   1
open_aux_u : error opening wrfchemv_d01 for reading. 100
 Tile Strategy is not specified. Assuming 1D-Y
WRF TILE   1 IS    316 IE    330 JS    137 JE    145
WRF NUMBER OF TILES =   1
 max optd  2.6151242E+30
 max taucldi  0.0000000E+00
 max taucldw  0.0000000E+00
 =================================================
 W R F - G C   T I M E R S
    Domain           1 (Units: s)
 =================================================
  => Coupler Component                       0.031
   -- Physics & Parameterization             0.001
   -- Diagnostics Out                        0.000
  => GEOS-Chem Column                        0.000
  ===> Total Chemistry                       0.031
  => WRF                                     0.000
  ===> Total WRF-GC                          0.031
 max optd  2.6151242E+30
 max taucldi  4.3940622E-02
 max taucldw  1.0000007E-14
 %%%%%%%%% GIGC IN-PET GRID SWITCHING HACKS %%%%%%%%%
     (Not very) Proudly brought to you by hplin      
 Some debug information:
 ID:           1
 IM, JM, LM:          15           9          49  will be set as PAR
 Allocs: CMN T GC T
 RC at entry-point:           0
 %%%%%%%%%%%%%%%%%%%%%%%%%%%%%%%%%%%%%%%%%%%%%%%%%%%%
 No need to switch HcoState for ID           1
 Debug HcoState nSpc, NX, NY, NZ         163          15           9          49
 Exit RC:            0
 %%%%%%%%%    FINISHED GIGC_Switch_Dims    %%%%%%%%%
 GIGC_Chunk_Run: Running for in-PET grid #           1
 GIGC_Chunk_Run: Received new grid IM, JM, LM =          15           9
          49
HEMCO: Opening /fsx/HEMCO/BIOFUEL/v2014-07/biofuel.geos.4x5.nc
HEMCO: Opening /fsx/HEMCO/BROMINE/v2015-02/Bromocarb_Liang2010.nc
HEMCO: Opening /fsx/HEMCO/ACET/v2014-07/ACET_seawater.generic.1x1.nc
HEMCO: Opening /fsx/HEMCO/SOILNOX/v2014-07/DepReservoirDefault.nc
HEMCO: Opening /fsx/HEMCO/SOILNOX/v2014-07/soilNOx.landtype.generic.025x025.1L.nc
HEMCO: Opening /fsx/HEMCO/SOILNOX/v2014-07/soilNOx.climate.generic.05x05.nc
HEMCO: Opening /fsx/HEMCO/DUST_DEAD/v2014-07/dst_tibds.geos.4x5.nc
HEMCO: Opening /fsx/HEMCO/DUST_DEAD/v2014-07/GOCART_src_fn.geos.4x5.nc
HEMCO: Opening /fsx/HEMCO/MEGAN/v2018-05/MEGAN2.1_EF.geos.025x03125.nc
HEMCO: Opening /fsx/HEMCO/MEGAN/v2017-07/CLM4_PFT.geos.025x03125.nc
HEMCO: Opening /fsx/HEMCO/TIMEZONES/v2015-02/timezones_voronoi_1x1.nc
HEMCO: Opening /fsx/HEMCO/STRAT/v2015-01/Bry/GEOSCCM_Bry.200701.day.nc
HEMCO: Opening /fsx/HEMCO/STRAT/v2015-01/Bry/GEOSCCM_Bry.200701.night.nc
HEMCO: Opening /fsx/HEMCO/OMOC/v2018-01/OMOC.DJF.01x01.nc
HEMCO: Opening /fsx/HEMCO/OMOC/v2018-01/OMOC.MAM.01x01.nc
HEMCO: Opening /fsx/HEMCO/OMOC/v2018-01/OMOC.JJA.01x01.nc
HEMCO: Opening /fsx/HEMCO/OMOC/v2018-01/OMOC.SON.01x01.nc
HEMCO: Opening /fsx/HEMCO/AnnualScalar/v2014-07/AnnualScalar.geos.1x1.nc
HEMCO: Opening /fsx/HEMCO/EDGARv42/v2015-02/NO/EDGAR_hourly_NOxScal.nc
HEMCO: Opening /fsx/HEMCO/MASKS/v2018-09/EMEP_mask.geos.1x1.20151222.nc
HEMCO: Opening /fsx/HEMCO/MASKS/v2018-09/Canada_mask.geos.1x1.nc
HEMCO: Opening /fsx/HEMCO/MASKS/v2018-09/SE_Asia_mask.generic.1x1.nc
HEMCO: Opening /fsx/HEMCO/MASKS/v2018-09/MIX_Asia_mask.generic.025x025.nc
HEMCO: Opening /fsx/HEMCO/MASKS/v2018-09/CONUS_Mask.01x01.nc
HEMCO: Opening /fsx/HEMCO/MASKS/v2018-09/AF_LANDMASK.geos.05x0666.global.nc
HEMCO: Opening /fsx/HEMCO/MASKS/v2018-09/China_mask.generic.1x1.nc
HEMCO: Opening /fsx/HEMCO/MASKS/v2018-09/India_mask.generic.1x1.nc
HEMCO: Opening /fsx/HEMCO/AnnualScalar/v2014-07/AnnualScalar.geos.1x1.nc
HEMCO: Opening /fsx/HEMCO/NH3/v2014-07/NH3_geos.4x5.nc
HEMCO: Opening /fsx/HEMCO/NH3/v2018-04/NH3_Arctic_seabirds.nc
HEMCO: Opening /fsx/HEMCO/CEDS/v2018-08/2014/NO-em-anthro_CMIP_CEDS_2014.nc
HEMCO: Opening /fsx/HEMCO/CEDS/v2018-08/2014/CO-em-anthro_CMIP_CEDS_2014.nc
HEMCO: Opening /fsx/HEMCO/CEDS/v2018-08/2014/SO2-em-anthro_CMIP_CEDS_2014.nc
HEMCO: Opening /fsx/HEMCO/CEDS/v2018-08/2014/NH3-em-anthro_CMIP_CEDS_2014.nc
HEMCO: Opening /fsx/HEMCO/CEDS/v2018-08/2014/BC-em-anthro_CMIP_CEDS_2014.nc
HEMCO: Opening /fsx/HEMCO/CEDS/v2018-08/2014/OC-em-anthro_CMIP_CEDS_2014.nc
HEMCO: Opening /fsx/HEMCO/CEDS/v2018-08/2014/EOH-em-anthro_CMIP_CEDS_2014.nc
HEMCO: Opening /fsx/HEMCO/CEDS/v2018-08/2014/C2H6-em-anthro_CMIP_CEDS_2014.nc
HEMCO: Opening /fsx/HEMCO/CEDS/v2018-08/2014/C3H8-em-anthro_CMIP_CEDS_2014.nc
HEMCO: Opening /fsx/HEMCO/CEDS/v2018-08/2014/ALK4_butanes-em-anthro_CMIP_CEDS_2014.nc
HEMCO: Opening /fsx/HEMCO/CEDS/v2018-08/2014/ALK4_pentanes-em-anthro_CMIP_CEDS_2014.nc
HEMCO: Opening /fsx/HEMCO/CEDS/v2018-08/2014/ALK4_hexanes-em-anthro_CMIP_CEDS_2014.nc
HEMCO: Opening /fsx/HEMCO/CEDS/v2018-08/2014/PRPE-em-anthro_CMIP_CEDS_2014.nc
HEMCO: Opening /fsx/HEMCO/CEDS/v2018-08/2014/BENZ-em-anthro_CMIP_CEDS_2014.nc
HEMCO: Opening /fsx/HEMCO/CEDS/v2018-08/2014/TOLU-em-anthro_CMIP_CEDS_2014.nc
HEMCO: Opening /fsx/HEMCO/CEDS/v2018-08/2014/XYLE-em-anthro_CMIP_CEDS_2014.nc
HEMCO: Opening /fsx/HEMCO/CEDS/v2018-08/2014/CH2O-em-anthro_CMIP_CEDS_2014.nc
HEMCO: Opening /fsx/HEMCO/CEDS/v2018-08/2014/ALD2-em-anthro_CMIP_CEDS_2014.nc
HEMCO: Opening /fsx/HEMCO/CEDS/v2018-08/2014/MEK-em-anthro_CMIP_CEDS_2014.nc
HEMCO: Opening /fsx/HEMCO/CEDS/v2018-08/2014/HCOOH-em-anthro_CMIP_CEDS_2014.nc
HEMCO: Opening /fsx/HEMCO/C2H6_2010/v2017-05/C2H6_global_anth_biof.201001.nc
HEMCO: Opening /fsx/HEMCO/NEI2011/v2017-02-MM/01/NEI11_0.1x0.1_201101_monmean.nc
HEMCO: Opening /fsx/HEMCO/NEI2011/v2017-02-MM/01/NEI11_0.1x0.1_201101_monmean_egu.nc
HEMCO: Opening /fsx/HEMCO/NEI2011/v2017-02-MM/01/NEI11_0.1x0.1_201101_monmean_egupk.nc
HEMCO: Opening /fsx/HEMCO/NEI2011/v2017-02-MM/01/NEI11_0.1x0.1_201101_monmean_oilgas.nc
HEMCO: Opening /fsx/HEMCO/NEI2011/v2017-02-MM/01/NEI11_0.1x0.1_201101_monmean_othpt.nc
HEMCO: Opening /fsx/HEMCO/NEI2011/v2017-02-MM/01/NEI11_0.1x0.1_201101_monmean_ptnonipm.nc
HEMCO: Opening /fsx/HEMCO/IODINE/v2017-09/CH3I_monthly_emissions_Ordonez_2012_COARDS.nc
HEMCO: Opening /fsx/HEMCO/IODINE/v2017-09/CH2I2_monthly_emissions_Ordonez_2012_COARDS.nc
HEMCO: Opening /fsx/HEMCO/IODINE/v2017-09/CH2ICl_monthly_emissions_Ordonez_2012_COARDS.nc
HEMCO: Opening /fsx/HEMCO/IODINE/v2017-09/CH2IBr_monthly_emissions_Ordonez_2012_COARDS.nc
HEMCO: Opening /fsx/HEMCO/CEDS/v2018-08/2014/CO-em-anthro_CMIP_CEDS_2014.nc
HEMCO: Opening /fsx/HEMCO/CEDS/v2018-08/2014/SO2-em-anthro_CMIP_CEDS_2014.nc
HEMCO: Opening /fsx/HEMCO/CEDS/v2018-08/2014/NH3-em-anthro_CMIP_CEDS_2014.nc
HEMCO: Opening /fsx/HEMCO/CEDS/v2018-08/2014/BC-em-anthro_CMIP_CEDS_2014.nc
HEMCO: Opening /fsx/HEMCO/CEDS/v2018-08/2014/OC-em-anthro_CMIP_CEDS_2014.nc
HEMCO: Opening /fsx/HEMCO/CEDS/v2018-08/2014/EOH-em-anthro_CMIP_CEDS_2014.nc
HEMCO: Opening /fsx/HEMCO/CEDS/v2018-08/2014/C2H6-em-anthro_CMIP_CEDS_2014.nc
HEMCO: Opening /fsx/HEMCO/CEDS/v2018-08/2014/C3H8-em-anthro_CMIP_CEDS_2014.nc
HEMCO: Opening /fsx/HEMCO/CEDS/v2018-08/2014/ALK4_butanes-em-anthro_CMIP_CEDS_2014.nc
HEMCO: Opening /fsx/HEMCO/CEDS/v2018-08/2014/ALK4_pentanes-em-anthro_CMIP_CEDS_2014.nc
HEMCO: Opening /fsx/HEMCO/CEDS/v2018-08/2014/ALK4_hexanes-em-anthro_CMIP_CEDS_2014.nc
HEMCO: Opening /fsx/HEMCO/CEDS/v2018-08/2014/PRPE-em-anthro_CMIP_CEDS_2014.nc
HEMCO: Opening /fsx/HEMCO/CEDS/v2018-08/2014/BENZ-em-anthro_CMIP_CEDS_2014.nc
HEMCO: Opening /fsx/HEMCO/CEDS/v2018-08/2014/TOLU-em-anthro_CMIP_CEDS_2014.nc
HEMCO: Opening /fsx/HEMCO/CEDS/v2018-08/2014/XYLE-em-anthro_CMIP_CEDS_2014.nc
HEMCO: Opening /fsx/HEMCO/CEDS/v2018-08/2014/CH2O-em-anthro_CMIP_CEDS_2014.nc
HEMCO: Opening /fsx/HEMCO/CEDS/v2018-08/2014/ALD2-em-anthro_CMIP_CEDS_2014.nc
HEMCO: Opening /fsx/HEMCO/CEDS/v2018-08/2014/MEK-em-anthro_CMIP_CEDS_2014.nc
HEMCO: Opening /fsx/HEMCO/CEDS/v2018-08/2014/HCOOH-em-anthro_CMIP_CEDS_2014.nc
HEMCO: Opening /fsx/HEMCO/CEDS/v2018-08/2014/NO-em-anthro_CMIP_CEDS_2014.nc
HEMCO: Opening /fsx/HEMCO/AEIC/v2015-01/AEIC.47L.gen.1x1.nc
HEMCO: Opening /fsx/HEMCO/ALD2/v2017-03/resp.geos.2x25.nc
HEMCO: Opening /fsx/HEMCO/DMS/v2015-07/DMS_lana.geos.1x1.nc
HEMCO: Opening /fsx/HEMCO/ALD2/v2017-03/ALD2_seawater.geos.2x25.nc
HEMCO: Opening /fsx/HEMCO/DUST_DEAD/v2014-07/dst_tvbds.geos.4x5.nc
HEMCO: Opening /fsx/HEMCO/DUST_DEAD/v2018-04/PM25FINE_ECLIPSE_2015.geos.2x25.nc
HEMCO: Opening /fsx/HEMCO/SOA/v2014-07/NVOC.geos.1x1.nc
HEMCO: Opening /fsx/HEMCO/GFED4/v2015-10/2016/GFED4_gen.025x025.201601.nc
HEMCO: Opening /fsx/HEMCO/UVALBEDO/v2015-03/uvalbedo.geos.2x25.nc
HEMCO: Opening /fsx/HEMCO/GMI/v2015-02/gmi.clim.ACET.geos5.2x25.nc
HEMCO: Opening /fsx/HEMCO/GMI/v2015-02/gmi.clim.ACTA.geos5.2x25.nc
HEMCO: Opening /fsx/HEMCO/GMI/v2015-02/gmi.clim.ALD2.geos5.2x25.nc
HEMCO: Opening /fsx/HEMCO/GMI/v2015-02/gmi.clim.ALK4.geos5.2x25.nc
HEMCO: Opening /fsx/HEMCO/GMI/v2015-02/gmi.clim.C2H6.geos5.2x25.nc
HEMCO: Opening /fsx/HEMCO/GMI/v2015-02/gmi.clim.C3H8.geos5.2x25.nc
HEMCO: Opening /fsx/HEMCO/GMI/v2015-02/gmi.clim.CCl4.geos5.2x25.nc
HEMCO: Opening /fsx/HEMCO/GMI/v2015-02/gmi.clim.CF2Cl2.geos5.2x25.nc
HEMCO: Opening /fsx/HEMCO/GMI/v2015-02/gmi.clim.CF2ClBr.geos5.2x25.nc
HEMCO: Opening /fsx/HEMCO/GMI/v2015-02/gmi.clim.CFC113.geos5.2x25.nc
HEMCO: Opening /fsx/HEMCO/GMI/v2015-02/gmi.clim.CFC114.geos5.2x25.nc
HEMCO: Opening /fsx/HEMCO/GMI/v2015-02/gmi.clim.CFC115.geos5.2x25.nc
HEMCO: Opening /fsx/HEMCO/GMI/v2015-02/gmi.clim.CFCl3.geos5.2x25.nc
HEMCO: Opening /fsx/HEMCO/GMI/v2015-02/gmi.clim.CH2O.geos5.2x25.nc
HEMCO: Opening /fsx/HEMCO/GMI/v2015-02/gmi.clim.CH3CCl3.geos5.2x25.nc
HEMCO: Opening /fsx/HEMCO/GMI/v2015-02/gmi.clim.CH3Cl.geos5.2x25.nc
HEMCO: Opening /fsx/HEMCO/GMI/v2015-02/gmi.clim.CH4.geos5.2x25.nc
HEMCO: Opening /fsx/HEMCO/GMI/v2015-02/gmi.clim.CO.geos5.2x25.nc
HEMCO: Opening /fsx/HEMCO/GMI/v2015-02/gmi.clim.Cl.geos5.2x25.nc
HEMCO: Opening /fsx/HEMCO/GMI/v2015-02/gmi.clim.Cl2.geos5.2x25.nc
HEMCO: Opening /fsx/HEMCO/GMI/v2015-02/gmi.clim.Cl2O2.geos5.2x25.nc
HEMCO: Opening /fsx/HEMCO/GMI/v2015-02/gmi.clim.ClO.geos5.2x25.nc
HEMCO: Opening /fsx/HEMCO/GMI/v2015-02/gmi.clim.EOH.geos5.2x25.nc
HEMCO: Opening /fsx/HEMCO/GMI/v2015-02/gmi.clim.GLYC.geos5.2x25.nc
HEMCO: Opening /fsx/HEMCO/GMI/v2015-02/gmi.clim.GLYX.geos5.2x25.nc
HEMCO: Opening /fsx/HEMCO/GMI/v2015-02/gmi.clim.H2402.geos5.2x25.nc
HEMCO: Opening /fsx/HEMCO/GMI/v2015-02/gmi.clim.H2O.geos5.2x25.nc
HEMCO: Opening /fsx/HEMCO/GMI/v2015-02/gmi.clim.H2O2.geos5.2x25.nc
HEMCO: Opening /fsx/HEMCO/GMI/v2015-02/gmi.clim.HAC.geos5.2x25.nc
HEMCO: Opening /fsx/HEMCO/GMI/v2015-02/gmi.clim.HCFC141b.geos5.2x25.nc
HEMCO: Opening /fsx/HEMCO/GMI/v2015-02/gmi.clim.HCFC142b.geos5.2x25.nc
HEMCO: Opening /fsx/HEMCO/GMI/v2015-02/gmi.clim.HCFC22.geos5.2x25.nc
HEMCO: Opening /fsx/HEMCO/GMI/v2015-02/gmi.clim.HCOOH.geos5.2x25.20170108.nc
HEMCO: Opening /fsx/HEMCO/GMI/v2015-02/gmi.clim.HCl.geos5.2x25.nc
HEMCO: Opening /fsx/HEMCO/GMI/v2015-02/gmi.clim.HNO2.geos5.2x25.nc
HEMCO: Opening /fsx/HEMCO/GMI/v2015-02/gmi.clim.HNO3.geos5.2x25.nc
HEMCO: Opening /fsx/HEMCO/GMI/v2015-02/gmi.clim.HNO4.geos5.2x25.nc
HEMCO: Opening /fsx/HEMCO/GMI/v2015-02/gmi.clim.HOCl.geos5.2x25.nc
HEMCO: Opening /fsx/HEMCO/GMI/v2015-02/gmi.clim.ISN1.geos5.2x25.nc
HEMCO: Opening /fsx/HEMCO/GMI/v2015-02/gmi.clim.ISOP.geos5.2x25.nc
HEMCO: Opening /fsx/HEMCO/GMI/v2015-02/gmi.clim.MACR.geos5.2x25.nc
HEMCO: Opening /fsx/HEMCO/GMI/v2015-02/gmi.clim.MAP.geos5.2x25.nc
HEMCO: Opening /fsx/HEMCO/GMI/v2015-02/gmi.clim.MEK.geos5.2x25.nc
HEMCO: Opening /fsx/HEMCO/GMI/v2015-02/gmi.clim.MGLY.geos5.2x25.nc
HEMCO: Opening /fsx/HEMCO/GMI/v2015-02/gmi.clim.MP.geos5.2x25.nc
HEMCO: Opening /fsx/HEMCO/GMI/v2015-02/gmi.clim.MVK.geos5.2x25.nc
HEMCO: Opening /fsx/HEMCO/GMI/v2015-02/gmi.clim.N2O.geos5.2x25.nc
HEMCO: Opening /fsx/HEMCO/GMI/v2015-02/gmi.clim.N2O5.geos5.2x25.nc
HEMCO: Opening /fsx/HEMCO/GMI/v2015-02/gmi.clim.NO.geos5.2x25.nc
HEMCO: Opening /fsx/HEMCO/GMI/v2015-02/gmi.clim.NO2.geos5.2x25.nc
HEMCO: Opening /fsx/HEMCO/GMI/v2015-02/gmi.clim.NO3.geos5.2x25.nc
HEMCO: Opening /fsx/HEMCO/GMI/v2015-02/gmi.clim.O3.geos5.2x25.nc
HEMCO: Opening /fsx/HEMCO/GMI/v2015-02/gmi.clim.OClO.geos5.2x25.nc
HEMCO: Opening /fsx/HEMCO/GMI/v2015-02/gmi.clim.PAN.geos5.2x25.nc
HEMCO: Opening /fsx/HEMCO/GMI/v2015-02/gmi.clim.NPMN.geos5.2x25.nc
HEMCO: Opening /fsx/HEMCO/GMI/v2015-02/gmi.clim.IPMN.geos5.2x25.nc
HEMCO: Opening /fsx/HEMCO/GMI/v2015-02/gmi.clim.PPN.geos5.2x25.nc
HEMCO: Opening /fsx/HEMCO/GMI/v2015-02/gmi.clim.PRPE.geos5.2x25.nc
HEMCO: Opening /fsx/HEMCO/GMI/v2015-02/gmi.clim.R4N2.geos5.2x25.nc
HEMCO: Opening /fsx/HEMCO/GMI/v2015-02/gmi.clim.RCHO.geos5.2x25.nc
HEMCO: Opening /fsx/HEMCO/GMI/v2015-02/gmi.clim.RIPA.geos5.2x25.nc
HEMCO: Opening /fsx/HEMCO/GMI/v2015-02/gmi.clim.RIPB.geos5.2x25.nc
HEMCO: Opening /fsx/HEMCO/GMI/v2015-02/gmi.clim.RIPD.geos5.2x25.nc
HEMCO: Opening /fsx/HEMCO/GMI/v2015-02/gmi.clim.OH.geos5.2x25.nc
HEMCO: Opening /fsx/HEMCO/NOAA_GMD/v2018-01/monthly.gridded.surface.methane.1979-2020.1x1.nc
HEMCO: Opening /fsx/HEMCO/GEIA/v2014-07/GEIA_monthscal.generic.1x1.nc
HEMCO: Opening /fsx/HEMCO/EMEP/v2015-03/EMEP.Seasonal.geos.1x1.nc
HEMCO: Opening /fsx/HEMCO/BROMINE/v2015-02/BromoCarb_Season.nc
HEMCO: Opening /fsx/HEMCO/EDGARv43/v2016-11/EDGAR_v43.Seasonal.1x1.nc
HEMCO: Opening /fsx/HEMCO/NEI2005/v2014-09/scaling/NEI99.dow.geos.1x1.nc
HEMCO: Opening /fsx/HEMCO/VOLCANO/v2015-02/2009/volc_so2_gen.1x1.47L.200901.nc
HEMCO: Opening /fsx/HEMCO/SOILNOX/v2014-07/soilNOx.fert_res.generic.05x05.nc
 vdinti: pbl height will be limited to bottom           25  model levels. top is
     431.250100000000       hpa
 =================================================
 W R F - G C   T I M E R S
    Domain           1 (Units: s)
 =================================================
  => Coupler Component                       0.054
   -- Physics & Parameterization             0.010
   -- Diagnostics Out                        0.000
  => GEOS-Chem Column                      133.814
  ===> Total Chemistry                     133.867
  => WRF                                    17.297
  ===> Total WRF-GC                        151.164
 max optd  1.9364301E+31
 max taucldi  7.9059325E-02
 max taucldw  9.3165539E-07
 Switching is not necessary as we are already
 in the right domain!
 GIGC_Chunk_Run: Running for in-PET grid #           1
 GIGC_Chunk_Run: Received new grid IM, JM, LM =          15           9
          49
 =================================================
 W R F - G C   T I M E R S
    Domain           1 (Units: s)
 =================================================
  => Coupler Component                       0.079
   -- Physics & Parameterization             0.019
   -- Diagnostics Out                        0.000
  => GEOS-Chem Column                      135.259
  ===> Total Chemistry                     135.338
  => WRF                                    57.087
  ===> Total WRF-GC                        192.425
 max optd  1.9364301E+31
 max taucldi  7.1012966E-02
 max taucldw  1.8171228E-06
 Switching is not necessary as we are already
 in the right domain!
 GIGC_Chunk_Run: Running for in-PET grid #           1
 GIGC_Chunk_Run: Received new grid IM, JM, LM =          15           9
          49
 =================================================
 W R F - G C   T I M E R S
    Domain           1 (Units: s)
 =================================================
  => Coupler Component                       0.109
   -- Physics & Parameterization             0.028
   -- Diagnostics Out                        0.000
  => GEOS-Chem Column                      136.493
  ===> Total Chemistry                     136.602
  => WRF                                    77.502
  ===> Total WRF-GC                        214.104
 max optd  1.9364301E+31
 max taucldi  0.1157651    
 max taucldw  2.7058657E-06
 Switching is not necessary as we are already
 in the right domain!
 GIGC_Chunk_Run: Running for in-PET grid #           1
 GIGC_Chunk_Run: Received new grid IM, JM, LM =          15           9
          49
 =================================================
 W R F - G C   T I M E R S
    Domain           1 (Units: s)
 =================================================
  => Coupler Component                       0.142
   -- Physics & Parameterization             0.037
   -- Diagnostics Out                        0.000
  => GEOS-Chem Column                      137.685
  ===> Total Chemistry                     137.828
  => WRF                                    96.354
  ===> Total WRF-GC                        234.182
 max optd  1.9364301E+31
 max taucldi  0.1097463    
 max taucldw  3.4817367E-06
 Switching is not necessary as we are already
 in the right domain!
 GIGC_Chunk_Run: Running for in-PET grid #           1
 GIGC_Chunk_Run: Received new grid IM, JM, LM =          15           9
          49
 =================================================
 W R F - G C   T I M E R S
    Domain           1 (Units: s)
 =================================================
  => Coupler Component                       0.175
   -- Physics & Parameterization             0.046
   -- Diagnostics Out                        0.000
  => GEOS-Chem Column                      138.845
  ===> Total Chemistry                     139.020
  => WRF                                   114.791
  ===> Total WRF-GC                        253.811
 max optd  1.9364301E+31
 max taucldi  8.3048172E-02
 max taucldw  4.6958517E-06
 Switching is not necessary as we are already
 in the right domain!
 GIGC_Chunk_Run: Running for in-PET grid #           1
 GIGC_Chunk_Run: Received new grid IM, JM, LM =          15           9
          49
 =================================================
 W R F - G C   T I M E R S
    Domain           1 (Units: s)
 =================================================
  => Coupler Component                       0.206
   -- Physics & Parameterization             0.055
   -- Diagnostics Out                        0.000
  => GEOS-Chem Column                      140.002
  ===> Total Chemistry                     140.208
  => WRF                                   133.141
  ===> Total WRF-GC                        273.349
 max optd  1.9364301E+31
 max taucldi  1.8018648E-02
 max taucldw  6.4674782E-06
 Switching is not necessary as we are already
 in the right domain!
 GIGC_Chunk_Run: Running for in-PET grid #           1
 GIGC_Chunk_Run: Received new grid IM, JM, LM =          15           9
          49
 =================================================
 W R F - G C   T I M E R S
    Domain           1 (Units: s)
 =================================================
  => Coupler Component                       0.237
   -- Physics & Parameterization             0.064
   -- Diagnostics Out                        0.000
  => GEOS-Chem Column                      141.146
  ===> Total Chemistry                     141.383
  => WRF                                   151.490
  ===> Total WRF-GC                        292.873
 max optd  1.9364301E+31
 max taucldi  2.8487593E-02
 max taucldw  8.4452422E-06
 Switching is not necessary as we are already
 in the right domain!
 GIGC_Chunk_Run: Running for in-PET grid #           1
 GIGC_Chunk_Run: Received new grid IM, JM, LM =          15           9
          49
 =================================================
 W R F - G C   T I M E R S
    Domain           1 (Units: s)
 =================================================
  => Coupler Component                       0.269
   -- Physics & Parameterization             0.074
   -- Diagnostics Out                        0.000
  => GEOS-Chem Column                      142.286
  ===> Total Chemistry                     142.555
  => WRF                                   169.782
  ===> Total WRF-GC                        312.337
 max optd  1.9364301E+31
 max taucldi  5.7834866E-03
 max taucldw  1.0123051E-05
 Switching is not necessary as we are already
 in the right domain!
 GIGC_Chunk_Run: Running for in-PET grid #           1
 GIGC_Chunk_Run: Received new grid IM, JM, LM =          15           9
          49
 =================================================
 W R F - G C   T I M E R S
    Domain           1 (Units: s)
 =================================================
  => Coupler Component                       0.303
   -- Physics & Parameterization             0.082
   -- Diagnostics Out                        0.000
  => GEOS-Chem Column                      143.405
  ===> Total Chemistry                     143.707
  => WRF                                   188.079
  ===> Total WRF-GC                        331.787
 max optd  1.9364301E+31
 max taucldi  3.6043268E-02
 max taucldw  1.1043394E-05
 Switching is not necessary as we are already
 in the right domain!
 GIGC_Chunk_Run: Running for in-PET grid #           1
 GIGC_Chunk_Run: Received new grid IM, JM, LM =          15           9
          49
 =================================================
 W R F - G C   T I M E R S
    Domain           1 (Units: s)
 =================================================
  => Coupler Component                       0.341
   -- Physics & Parameterization             0.092
   -- Diagnostics Out                        0.000
  => GEOS-Chem Column                      144.438
  ===> Total Chemistry                     144.779
  => WRF                                   206.452
  ===> Total WRF-GC                        351.232
 max optd  1.9364301E+31
 max taucldi  6.3047640E-02
 max taucldw  1.1420273E-05
 Switching is not necessary as we are already
 in the right domain!
 GIGC_Chunk_Run: Running for in-PET grid #           1
 GIGC_Chunk_Run: Received new grid IM, JM, LM =          15           9
          49
 =================================================
 W R F - G C   T I M E R S
    Domain           1 (Units: s)
 =================================================
  => Coupler Component                       0.379
   -- Physics & Parameterization             0.101
   -- Diagnostics Out                        0.000
  => GEOS-Chem Column                      145.469
  ===> Total Chemistry                     145.849
  => WRF                                   224.825
  ===> Total WRF-GC                        370.674
 max optd  1.9364301E+31
 max taucldi  7.5398020E-02
 max taucldw  1.1180190E-05
 Switching is not necessary as we are already
 in the right domain!
 GIGC_Chunk_Run: Running for in-PET grid #           1
 GIGC_Chunk_Run: Received new grid IM, JM, LM =          15           9
          49
 =================================================
 W R F - G C   T I M E R S
    Domain           1 (Units: s)
 =================================================
  => Coupler Component                       0.416
   -- Physics & Parameterization             0.110
   -- Diagnostics Out                        0.000
  => GEOS-Chem Column                      146.513
  ===> Total Chemistry                     146.930
  => WRF                                   243.089
  ===> Total WRF-GC                        390.018
 HOURLY EMISSIONS UPDATE TIME     3600.0       0.0
mediation_integrate: med_read_wrf_chem_emissions: Read emissions for time 2018-01-01_01:00:00
 max optd  1.9364301E+31
 max taucldi  7.5322494E-02
 max taucldw  1.0391096E-05
 Switching is not necessary as we are already
 in the right domain!
 GIGC_Chunk_Run: Running for in-PET grid #           1
 GIGC_Chunk_Run: Received new grid IM, JM, LM =          15           9
          49
 =================================================
 W R F - G C   T I M E R S
    Domain           1 (Units: s)
 =================================================
  => Coupler Component                       0.453
   -- Physics & Parameterization             0.119
   -- Diagnostics Out                        0.000
  => GEOS-Chem Column                      147.537
  ===> Total Chemistry                     147.990
  => WRF                                   261.415
  ===> Total WRF-GC                        409.404
 max optd  1.9364301E+31
 max taucldi  7.6750033E-02
 max taucldw  9.7853690E-06
 Switching is not necessary as we are already
 in the right domain!
 GIGC_Chunk_Run: Running for in-PET grid #           1
 GIGC_Chunk_Run: Received new grid IM, JM, LM =          15           9
          49
 =================================================
 W R F - G C   T I M E R S
    Domain           1 (Units: s)
 =================================================
  => Coupler Component                       0.486
   -- Physics & Parameterization             0.128
   -- Diagnostics Out                        0.000
  => GEOS-Chem Column                      148.590
  ===> Total Chemistry                     149.077
  => WRF                                   279.762
  ===> Total WRF-GC                        428.838
 max optd  1.9364301E+31
 max taucldi  2.0987364E-02
 max taucldw  1.0297601E-05
 Switching is not necessary as we are already
 in the right domain!
 GIGC_Chunk_Run: Running for in-PET grid #           1
 GIGC_Chunk_Run: Received new grid IM, JM, LM =          15           9
          49
 =================================================
 W R F - G C   T I M E R S
    Domain           1 (Units: s)
 =================================================
  => Coupler Component                       0.523
   -- Physics & Parameterization             0.136
   -- Diagnostics Out                        0.000
  => GEOS-Chem Column                      149.630
  ===> Total Chemistry                     150.153
  => WRF                                   297.948
  ===> Total WRF-GC                        448.101
 max optd  1.9364301E+31
 max taucldi  9.9887019E-03
 max taucldw  1.0703329E-05
 Switching is not necessary as we are already
 in the right domain!
 GIGC_Chunk_Run: Running for in-PET grid #           1
 GIGC_Chunk_Run: Received new grid IM, JM, LM =          15           9
          49
 =================================================
 W R F - G C   T I M E R S
    Domain           1 (Units: s)
 =================================================
  => Coupler Component                       0.560
   -- Physics & Parameterization             0.146
   -- Diagnostics Out                        0.000
  => GEOS-Chem Column                      150.662
  ===> Total Chemistry                     151.223
  => WRF                                   316.244
  ===> Total WRF-GC                        467.466
 max optd  1.9364301E+31
 max taucldi  1.0751132E-02
 max taucldw  1.1039628E-05
 Switching is not necessary as we are already
 in the right domain!
 GIGC_Chunk_Run: Running for in-PET grid #           1
 GIGC_Chunk_Run: Received new grid IM, JM, LM =          15           9
          49
 =================================================
 W R F - G C   T I M E R S
    Domain           1 (Units: s)
 =================================================
  => Coupler Component                       0.595
   -- Physics & Parameterization             0.155
   -- Diagnostics Out                        0.000
  => GEOS-Chem Column                      151.701
  ===> Total Chemistry                     152.296
  => WRF                                   334.492
  ===> Total WRF-GC                        486.788
 max optd  1.9364301E+31
 max taucldi  1.1347200E-02
 max taucldw  1.1316313E-05
 Switching is not necessary as we are already
 in the right domain!
 GIGC_Chunk_Run: Running for in-PET grid #           1
 GIGC_Chunk_Run: Received new grid IM, JM, LM =          15           9
          49
 =================================================
 W R F - G C   T I M E R S
    Domain           1 (Units: s)
 =================================================
  => Coupler Component                       0.627
   -- Physics & Parameterization             0.165
   -- Diagnostics Out                        0.000
  => GEOS-Chem Column                      152.756
  ===> Total Chemistry                     153.383
  => WRF                                   352.699
  ===> Total WRF-GC                        506.082
 max optd  1.9364301E+31
 max taucldi  1.1782521E-02
 max taucldw  1.1471014E-05
 Switching is not necessary as we are already
 in the right domain!
 GIGC_Chunk_Run: Running for in-PET grid #           1
 GIGC_Chunk_Run: Received new grid IM, JM, LM =          15           9
          49
 =================================================
 W R F - G C   T I M E R S
    Domain           1 (Units: s)
 =================================================
  => Coupler Component                       0.661
   -- Physics & Parameterization             0.174
   -- Diagnostics Out                        0.000
  => GEOS-Chem Column                      153.809
  ===> Total Chemistry                     154.469
  => WRF                                   370.959
  ===> Total WRF-GC                        525.428
 max optd  1.9364301E+31
 max taucldi  1.2193955E-02
 max taucldw  1.1473693E-05
 Switching is not necessary as we are already
 in the right domain!
 GIGC_Chunk_Run: Running for in-PET grid #           1
 GIGC_Chunk_Run: Received new grid IM, JM, LM =          15           9
          49
 =================================================
 W R F - G C   T I M E R S
    Domain           1 (Units: s)
 =================================================
  => Coupler Component                       0.694
   -- Physics & Parameterization             0.183
   -- Diagnostics Out                        0.000
  => GEOS-Chem Column                      154.863
  ===> Total Chemistry                     155.557
  => WRF                                   389.317
  ===> Total WRF-GC                        544.874
 max optd  1.9364301E+31
 max taucldi  1.2538020E-02
 max taucldw  1.1433533E-05
 Switching is not necessary as we are already
 in the right domain!
 GIGC_Chunk_Run: Running for in-PET grid #           1
 GIGC_Chunk_Run: Received new grid IM, JM, LM =          15           9
          49
 =================================================
 W R F - G C   T I M E R S
    Domain           1 (Units: s)
 =================================================
  => Coupler Component                       0.728
   -- Physics & Parameterization             0.192
   -- Diagnostics Out                        0.000
  => GEOS-Chem Column                      155.924
  ===> Total Chemistry                     156.652
  => WRF                                   407.424
  ===> Total WRF-GC                        564.076
 max optd  1.9364301E+31
 max taucldi  1.2937675E-02
 max taucldw  1.1430874E-05
 Switching is not necessary as we are already
 in the right domain!
 GIGC_Chunk_Run: Running for in-PET grid #           1
 GIGC_Chunk_Run: Received new grid IM, JM, LM =          15           9
          49
 =================================================
 W R F - G C   T I M E R S
    Domain           1 (Units: s)
 =================================================
  => Coupler Component                       0.763
   -- Physics & Parameterization             0.202
   -- Diagnostics Out                        0.000
  => GEOS-Chem Column                      156.958
  ===> Total Chemistry                     157.721
  => WRF                                   425.615
  ===> Total WRF-GC                        583.337
 max optd  1.9364301E+31
 max taucldi  1.3271460E-02
 max taucldw  1.1502721E-05
 Switching is not necessary as we are already
 in the right domain!
 GIGC_Chunk_Run: Running for in-PET grid #           1
 GIGC_Chunk_Run: Received new grid IM, JM, LM =          15           9
          49
 =================================================
 W R F - G C   T I M E R S
    Domain           1 (Units: s)
 =================================================
  => Coupler Component                       0.796
   -- Physics & Parameterization             0.211
   -- Diagnostics Out                        0.000
  => GEOS-Chem Column                      157.996
  ===> Total Chemistry                     158.792
  => WRF                                   443.907
  ===> Total WRF-GC                        602.699
 max optd  1.9364301E+31
 max taucldi  1.3643267E-02
 max taucldw  1.1647820E-05
 Switching is not necessary as we are already
 in the right domain!
 GIGC_Chunk_Run: Running for in-PET grid #           1
 GIGC_Chunk_Run: Received new grid IM, JM, LM =          15           9
          49
 =================================================
 W R F - G C   T I M E R S
    Domain           1 (Units: s)
 =================================================
  => Coupler Component                       0.832
   -- Physics & Parameterization             0.220
   -- Diagnostics Out                        0.000
  => GEOS-Chem Column                      159.035
  ===> Total Chemistry                     159.866
  => WRF                                   462.109
  ===> Total WRF-GC                        621.975
 HOURLY EMISSIONS UPDATE TIME     7200.0       0.0
mediation_integrate: med_read_wrf_chem_emissions: Read emissions for time 2018-01-01_02:00:00
 max optd  1.9364301E+31
 max taucldi  1.3734350E-02
 max taucldw  1.1866487E-05
 Switching is not necessary as we are already
 in the right domain!
 GIGC_Chunk_Run: Running for in-PET grid #           1
 GIGC_Chunk_Run: Received new grid IM, JM, LM =          15           9
          49
 =================================================
 W R F - G C   T I M E R S
    Domain           1 (Units: s)
 =================================================
  => Coupler Component                       0.868
   -- Physics & Parameterization             0.229
   -- Diagnostics Out                        0.000
  => GEOS-Chem Column                      160.076
  ===> Total Chemistry                     160.944
  => WRF                                   480.324
  ===> Total WRF-GC                        641.268
 max optd  1.9364301E+31
 max taucldi  1.3554636E-02
 max taucldw  1.2174489E-05
 Switching is not necessary as we are already
 in the right domain!
 GIGC_Chunk_Run: Running for in-PET grid #           1
 GIGC_Chunk_Run: Received new grid IM, JM, LM =          15           9
          49
 =================================================
 W R F - G C   T I M E R S
    Domain           1 (Units: s)
 =================================================
  => Coupler Component                       0.905
   -- Physics & Parameterization             0.238
   -- Diagnostics Out                        0.000
  => GEOS-Chem Column                      161.119
  ===> Total Chemistry                     162.024
  => WRF                                   498.561
  ===> Total WRF-GC                        660.585
 max optd  1.9364301E+31
 max taucldi  1.3247389E-02
 max taucldw  1.2530930E-05
 Switching is not necessary as we are already
 in the right domain!
 GIGC_Chunk_Run: Running for in-PET grid #           1
 GIGC_Chunk_Run: Received new grid IM, JM, LM =          15           9
          49
 =================================================
 W R F - G C   T I M E R S
    Domain           1 (Units: s)
 =================================================
  => Coupler Component                       0.936
   -- Physics & Parameterization             0.247
   -- Diagnostics Out                        0.000
  => GEOS-Chem Column                      162.189
  ===> Total Chemistry                     163.125
  => WRF                                   516.703
  ===> Total WRF-GC                        679.828
 max optd  1.9364301E+31
 max taucldi  2.2540288E-02
 max taucldw  1.2886383E-05
 Switching is not necessary as we are already
 in the right domain!
 GIGC_Chunk_Run: Running for in-PET grid #           1
 GIGC_Chunk_Run: Received new grid IM, JM, LM =          15           9
          49
 =================================================
 W R F - G C   T I M E R S
    Domain           1 (Units: s)
 =================================================
  => Coupler Component                       0.972
   -- Physics & Parameterization             0.257
   -- Diagnostics Out                        0.000
  => GEOS-Chem Column                      163.235
  ===> Total Chemistry                     164.207
  => WRF                                   534.795
  ===> Total WRF-GC                        699.002
 max optd  1.9364301E+31
 max taucldi  4.3970879E-02
 max taucldw  1.3178498E-05
 Switching is not necessary as we are already
 in the right domain!
 GIGC_Chunk_Run: Running for in-PET grid #           1
 GIGC_Chunk_Run: Received new grid IM, JM, LM =          15           9
          49
 =================================================
 W R F - G C   T I M E R S
    Domain           1 (Units: s)
 =================================================
  => Coupler Component                       1.004
   -- Physics & Parameterization             0.266
   -- Diagnostics Out                        0.000
  => GEOS-Chem Column                      164.299
  ===> Total Chemistry                     165.303
  => WRF                                   552.946
  ===> Total WRF-GC                        718.249
 max optd  1.9364301E+31
 max taucldi  8.0613293E-02
 max taucldw  1.3387892E-05
 Switching is not necessary as we are already
 in the right domain!
 GIGC_Chunk_Run: Running for in-PET grid #           1
 GIGC_Chunk_Run: Received new grid IM, JM, LM =          15           9
          49
 =================================================
 W R F - G C   T I M E R S
    Domain           1 (Units: s)
 =================================================
  => Coupler Component                       1.037
   -- Physics & Parameterization             0.275
   -- Diagnostics Out                        0.000
  => GEOS-Chem Column                      165.357
  ===> Total Chemistry                     166.394
  => WRF                                   571.075
  ===> Total WRF-GC                        737.468
 max optd  1.9364301E+31
 max taucldi  0.1275848    
 max taucldw  1.3505683E-05
 Switching is not necessary as we are already
 in the right domain!
 GIGC_Chunk_Run: Running for in-PET grid #           1
 GIGC_Chunk_Run: Received new grid IM, JM, LM =          15           9
          49
 =================================================
 W R F - G C   T I M E R S
    Domain           1 (Units: s)
 =================================================
  => Coupler Component                       1.070
   -- Physics & Parameterization             0.284
   -- Diagnostics Out                        0.000
  => GEOS-Chem Column                      166.420
  ===> Total Chemistry                     167.490
  => WRF                                   589.208
  ===> Total WRF-GC                        756.699
 max optd  1.9364301E+31
 max taucldi  0.1693794    
 max taucldw  1.3513456E-05
 Switching is not necessary as we are already
 in the right domain!
 GIGC_Chunk_Run: Running for in-PET grid #           1
 GIGC_Chunk_Run: Received new grid IM, JM, LM =          15           9
          49
 =================================================
 W R F - G C   T I M E R S
    Domain           1 (Units: s)
 =================================================
  => Coupler Component                       1.102
   -- Physics & Parameterization             0.293
   -- Diagnostics Out                        0.000
  => GEOS-Chem Column                      167.489
  ===> Total Chemistry                     168.591
  => WRF                                   607.297
  ===> Total WRF-GC                        775.888
 max optd  1.9364301E+31
 max taucldi  0.1741964    
 max taucldw  1.3454048E-05
 Switching is not necessary as we are already
 in the right domain!
 GIGC_Chunk_Run: Running for in-PET grid #           1
 GIGC_Chunk_Run: Received new grid IM, JM, LM =          15           9
          49
 =================================================
 W R F - G C   T I M E R S
    Domain           1 (Units: s)
 =================================================
  => Coupler Component                       1.137
   -- Physics & Parameterization             0.302
   -- Diagnostics Out                        0.000
  => GEOS-Chem Column                      168.558
  ===> Total Chemistry                     169.695
  => WRF                                   625.398
  ===> Total WRF-GC                        795.093
 max optd  1.9364301E+31
 max taucldi  0.1662211    
 max taucldw  1.3342155E-05
 Switching is not necessary as we are already
 in the right domain!
 GIGC_Chunk_Run: Running for in-PET grid #           1
 GIGC_Chunk_Run: Received new grid IM, JM, LM =          15           9
          49
 =================================================
 W R F - G C   T I M E R S
    Domain           1 (Units: s)
 =================================================
  => Coupler Component                       1.170
   -- Physics & Parameterization             0.311
   -- Diagnostics Out                        0.000
  => GEOS-Chem Column                      169.614
  ===> Total Chemistry                     170.783
  => WRF                                   643.524
  ===> Total WRF-GC                        814.307
 max optd  1.9364301E+31
 max taucldi  0.1490223    
 max taucldw  1.3141846E-05
 Switching is not necessary as we are already
 in the right domain!
 GIGC_Chunk_Run: Running for in-PET grid #           1
 GIGC_Chunk_Run: Received new grid IM, JM, LM =          15           9
          49
 =================================================
 W R F - G C   T I M E R S
    Domain           1 (Units: s)
 =================================================
  => Coupler Component                       1.202
   -- Physics & Parameterization             0.320
   -- Diagnostics Out                        0.000
  => GEOS-Chem Column                      170.682
  ===> Total Chemistry                     171.884
  => WRF                                   661.599
  ===> Total WRF-GC                        833.483
 max optd  1.9364301E+31
 max taucldi  0.1183362    
 max taucldw  1.2936664E-05
 Switching is not necessary as we are already
 in the right domain!
 GIGC_Chunk_Run: Running for in-PET grid #           1
 GIGC_Chunk_Run: Received new grid IM, JM, LM =          15           9
          49
 =================================================
 W R F - G C   T I M E R S
    Domain           1 (Units: s)
 =================================================
  => Coupler Component                       1.236
   -- Physics & Parameterization             0.329
   -- Diagnostics Out                        0.000
  => GEOS-Chem Column                      171.732
  ===> Total Chemistry                     172.969
  => WRF                                   679.663
  ===> Total WRF-GC                        852.631
 HOURLY EMISSIONS UPDATE TIME    10800.0       0.0
mediation_integrate: med_read_wrf_chem_emissions: Read emissions for time 2018-01-01_03:00:00
 max optd  1.9364301E+31
 max taucldi  9.5356748E-02
 max taucldw  1.2749104E-05
 Switching is not necessary as we are already
 in the right domain!
 GIGC_Chunk_Run: Running for in-PET grid #           1
 GIGC_Chunk_Run: Received new grid IM, JM, LM =          15           9
          49
 =================================================
 W R F - G C   T I M E R S
    Domain           1 (Units: s)
 =================================================
  => Coupler Component                       1.268
   -- Physics & Parameterization             0.338
   -- Diagnostics Out                        0.000
  => GEOS-Chem Column                      172.799
  ===> Total Chemistry                     174.067
  => WRF                                   697.806
  ===> Total WRF-GC                        871.873
 max optd  1.9364301E+31
 max taucldi  8.3050482E-02
 max taucldw  1.2541361E-05
 Switching is not necessary as we are already
 in the right domain!
 GIGC_Chunk_Run: Running for in-PET grid #           1
 GIGC_Chunk_Run: Received new grid IM, JM, LM =          15           9
          49
 =================================================
 W R F - G C   T I M E R S
    Domain           1 (Units: s)
 =================================================
  => Coupler Component                       1.305
   -- Physics & Parameterization             0.347
   -- Diagnostics Out                        0.000
  => GEOS-Chem Column                      173.856
  ===> Total Chemistry                     175.161
  => WRF                                   715.879
  ===> Total WRF-GC                        891.040
 max optd  1.9364301E+31
 max taucldi  9.0364985E-02
 max taucldw  1.2337347E-05
 Switching is not necessary as we are already
 in the right domain!
 GIGC_Chunk_Run: Running for in-PET grid #           1
 GIGC_Chunk_Run: Received new grid IM, JM, LM =          15           9
          49
 =================================================
 W R F - G C   T I M E R S
    Domain           1 (Units: s)
 =================================================
  => Coupler Component                       1.339
   -- Physics & Parameterization             0.356
   -- Diagnostics Out                        0.000
  => GEOS-Chem Column                      174.911
  ===> Total Chemistry                     176.250
  => WRF                                   733.990
  ===> Total WRF-GC                        910.240
 max optd  1.9364301E+31
 max taucldi  0.1228972    
 max taucldw  1.2164314E-05
 Switching is not necessary as we are already
 in the right domain!
 GIGC_Chunk_Run: Running for in-PET grid #           1
 GIGC_Chunk_Run: Received new grid IM, JM, LM =          15           9
          49
 =================================================
 W R F - G C   T I M E R S
    Domain           1 (Units: s)
 =================================================
  => Coupler Component                       1.376
   -- Physics & Parameterization             0.365
   -- Diagnostics Out                        0.000
  => GEOS-Chem Column                      175.950
  ===> Total Chemistry                     177.327
  => WRF                                   752.079
  ===> Total WRF-GC                        929.406
 max optd  1.9364301E+31
 max taucldi  0.1384955    
 max taucldw  1.2007406E-05
 Switching is not necessary as we are already
 in the right domain!
 GIGC_Chunk_Run: Running for in-PET grid #           1
 GIGC_Chunk_Run: Received new grid IM, JM, LM =          15           9
          49
 =================================================
 W R F - G C   T I M E R S
    Domain           1 (Units: s)
 =================================================
  => Coupler Component                       1.411
   -- Physics & Parameterization             0.374
   -- Diagnostics Out                        0.000
  => GEOS-Chem Column                      177.006
  ===> Total Chemistry                     178.416
  => WRF                                   770.161
  ===> Total WRF-GC                        948.578
 max optd  1.9364301E+31
 max taucldi  0.1566905    
 max taucldw  1.1846692E-05
 Switching is not necessary as we are already
 in the right domain!
 GIGC_Chunk_Run: Running for in-PET grid #           1
 GIGC_Chunk_Run: Received new grid IM, JM, LM =          15           9
          49
 =================================================
 W R F - G C   T I M E R S
    Domain           1 (Units: s)
 =================================================
  => Coupler Component                       1.445
   -- Physics & Parameterization             0.383
   -- Diagnostics Out                        0.000
  => GEOS-Chem Column                      178.064
  ===> Total Chemistry                     179.509
  => WRF                                   788.501
  ===> Total WRF-GC                        968.009
 max optd  1.9364301E+31
 max taucldi  0.1698065    
 max taucldw  1.1660990E-05
 Switching is not necessary as we are already
 in the right domain!
 GIGC_Chunk_Run: Running for in-PET grid #           1
 GIGC_Chunk_Run: Received new grid IM, JM, LM =          15           9
          49
 =================================================
 W R F - G C   T I M E R S
    Domain           1 (Units: s)
 =================================================
  => Coupler Component                       1.482
   -- Physics & Parameterization             0.392
   -- Diagnostics Out                        0.000
  => GEOS-Chem Column                      179.111
  ===> Total Chemistry                     180.592
  => WRF                                   806.680
  ===> Total WRF-GC                        987.272
 max optd  1.9364301E+31
 max taucldi  0.1730475    
 max taucldw  1.1475545E-05
 Switching is not necessary as we are already
 in the right domain!
 GIGC_Chunk_Run: Running for in-PET grid #           1
 GIGC_Chunk_Run: Received new grid IM, JM, LM =          15           9
          49
 =================================================
 W R F - G C   T I M E R S
    Domain           1 (Units: s)
 =================================================
  => Coupler Component                       1.516
   -- Physics & Parameterization             0.401
   -- Diagnostics Out                        0.000
  => GEOS-Chem Column                      180.152
  ===> Total Chemistry                     181.668
  => WRF                                   824.726
  ===> Total WRF-GC                       1006.394
 max optd  1.9364301E+31
 max taucldi  0.1661617    
 max taucldw  1.1315999E-05
 Switching is not necessary as we are already
 in the right domain!
 GIGC_Chunk_Run: Running for in-PET grid #           1
 GIGC_Chunk_Run: Received new grid IM, JM, LM =          15           9
          49
 =================================================
 W R F - G C   T I M E R S
    Domain           1 (Units: s)
 =================================================
  => Coupler Component                       1.551
   -- Physics & Parameterization             0.410
   -- Diagnostics Out                        0.000
  => GEOS-Chem Column                      181.196
  ===> Total Chemistry                     182.747
  => WRF                                   842.957
  ===> Total WRF-GC                       1025.704
 max optd  1.9364301E+31
 max taucldi  0.1509233    
 max taucldw  1.1183816E-05
 Switching is not necessary as we are already
 in the right domain!
 GIGC_Chunk_Run: Running for in-PET grid #           1
 GIGC_Chunk_Run: Received new grid IM, JM, LM =          15           9
          49
 =================================================
 W R F - G C   T I M E R S
    Domain           1 (Units: s)
 =================================================
  => Coupler Component                       1.584
   -- Physics & Parameterization             0.419
   -- Diagnostics Out                        0.000
  => GEOS-Chem Column                      182.250
  ===> Total Chemistry                     183.834
  => WRF                                   861.104
  ===> Total WRF-GC                       1044.938
 max optd  1.9364301E+31
 max taucldi  0.1473060    
 max taucldw  1.1085761E-05
 Switching is not necessary as we are already
 in the right domain!
 GIGC_Chunk_Run: Running for in-PET grid #           1
 GIGC_Chunk_Run: Received new grid IM, JM, LM =          15           9
          49
 =================================================
 W R F - G C   T I M E R S
    Domain           1 (Units: s)
 =================================================
  => Coupler Component                       1.621
   -- Physics & Parameterization             0.427
   -- Diagnostics Out                        0.000
  => GEOS-Chem Column                      183.284
  ===> Total Chemistry                     184.905
  => WRF                                   879.214
  ===> Total WRF-GC                       1064.119
 max optd  1.9364301E+31
 max taucldi  0.1353138    
 max taucldw  1.1018505E-05
 Switching is not necessary as we are already
 in the right domain!
 GIGC_Chunk_Run: Running for in-PET grid #           1
 GIGC_Chunk_Run: Received new grid IM, JM, LM =          15           9
          49
 =================================================
 W R F - G C   T I M E R S
    Domain           1 (Units: s)
 =================================================
  => Coupler Component                       1.657
   -- Physics & Parameterization             0.436
   -- Diagnostics Out                        0.000
  => GEOS-Chem Column                      184.327
  ===> Total Chemistry                     185.984
  => WRF                                   897.376
  ===> Total WRF-GC                       1083.360
 HOURLY EMISSIONS UPDATE TIME    14400.0       0.0
mediation_integrate: med_read_wrf_chem_emissions: Read emissions for time 2018-01-01_04:00:00
 max optd  1.9364301E+31
 max taucldi  0.1154041    
 max taucldw  1.0964148E-05
 Switching is not necessary as we are already
 in the right domain!
 GIGC_Chunk_Run: Running for in-PET grid #           1
 GIGC_Chunk_Run: Received new grid IM, JM, LM =          15           9
          49
 =================================================
 W R F - G C   T I M E R S
    Domain           1 (Units: s)
 =================================================
  => Coupler Component                       1.689
   -- Physics & Parameterization             0.445
   -- Diagnostics Out                        0.000
  => GEOS-Chem Column                      185.380
  ===> Total Chemistry                     187.069
  => WRF                                   915.536
  ===> Total WRF-GC                       1102.606
 max optd  1.9364301E+31
 max taucldi  9.7800843E-02
 max taucldw  1.1222823E-05
 Switching is not necessary as we are already
 in the right domain!
 GIGC_Chunk_Run: Running for in-PET grid #           1
 GIGC_Chunk_Run: Received new grid IM, JM, LM =          15           9
          49
 =================================================
 W R F - G C   T I M E R S
    Domain           1 (Units: s)
 =================================================
  => Coupler Component                       1.725
   -- Physics & Parameterization             0.454
   -- Diagnostics Out                        0.000
  => GEOS-Chem Column                      186.425
  ===> Total Chemistry                     188.149
  => WRF                                   933.674
  ===> Total WRF-GC                       1121.823
 max optd  1.9364301E+31
 max taucldi  9.3169741E-02
 max taucldw  1.2940593E-05
 Switching is not necessary as we are already
 in the right domain!
 GIGC_Chunk_Run: Running for in-PET grid #           1
 GIGC_Chunk_Run: Received new grid IM, JM, LM =          15           9
          49
 =================================================
 W R F - G C   T I M E R S
    Domain           1 (Units: s)
 =================================================
  => Coupler Component                       1.759
   -- Physics & Parameterization             0.463
   -- Diagnostics Out                        0.000
  => GEOS-Chem Column                      187.472
  ===> Total Chemistry                     189.231
  => WRF                                   951.912
  ===> Total WRF-GC                       1141.142
 max optd  1.9364301E+31
 max taucldi  6.6105105E-02
 max taucldw  1.4759142E-05
 Switching is not necessary as we are already
 in the right domain!
 GIGC_Chunk_Run: Running for in-PET grid #           1
 GIGC_Chunk_Run: Received new grid IM, JM, LM =          15           9
          49
 =================================================
 W R F - G C   T I M E R S
    Domain           1 (Units: s)
 =================================================
  => Coupler Component                       1.794
   -- Physics & Parameterization             0.472
   -- Diagnostics Out                        0.000
  => GEOS-Chem Column                      188.517
  ===> Total Chemistry                     190.311
  => WRF                                   970.028
  ===> Total WRF-GC                       1160.339
 max optd  1.9364301E+31
 max taucldi  5.0055295E-02
 max taucldw  1.6532533E-05
 Switching is not necessary as we are already
 in the right domain!
 GIGC_Chunk_Run: Running for in-PET grid #           1
 GIGC_Chunk_Run: Received new grid IM, JM, LM =          15           9
          49
 =================================================
 W R F - G C   T I M E R S
    Domain           1 (Units: s)
 =================================================
  => Coupler Component                       1.828
   -- Physics & Parameterization             0.481
   -- Diagnostics Out                        0.000
  => GEOS-Chem Column                      189.559
  ===> Total Chemistry                     191.387
  => WRF                                   988.196
  ===> Total WRF-GC                       1179.583
 max optd  1.9364301E+31
 max taucldi  1.9337725E-02
 max taucldw  1.8265151E-05
 Switching is not necessary as we are already
 in the right domain!
 GIGC_Chunk_Run: Running for in-PET grid #           1
 GIGC_Chunk_Run: Received new grid IM, JM, LM =          15           9
          49
 =================================================
 W R F - G C   T I M E R S
    Domain           1 (Units: s)
 =================================================
  => Coupler Component                       1.865
   -- Physics & Parameterization             0.490
   -- Diagnostics Out                        0.000
  => GEOS-Chem Column                      190.594
  ===> Total Chemistry                     192.460
  => WRF                                  1006.361
  ===> Total WRF-GC                       1198.820
 max optd  1.9364301E+31
 max taucldi  1.2867999E-02
 max taucldw  1.9917150E-05
 Switching is not necessary as we are already
 in the right domain!
 GIGC_Chunk_Run: Running for in-PET grid #           1
 GIGC_Chunk_Run: Received new grid IM, JM, LM =          15           9
          49
 =================================================
 W R F - G C   T I M E R S
    Domain           1 (Units: s)
 =================================================
  => Coupler Component                       1.901
   -- Physics & Parameterization             0.499
   -- Diagnostics Out                        0.000
  => GEOS-Chem Column                      191.631
  ===> Total Chemistry                     193.532
  => WRF                                  1024.565
  ===> Total WRF-GC                       1218.097
 max optd  1.9364301E+31
 max taucldi  9.0396414E-03
 max taucldw  2.1293214E-05
 Switching is not necessary as we are already
 in the right domain!
 GIGC_Chunk_Run: Running for in-PET grid #           1
 GIGC_Chunk_Run: Received new grid IM, JM, LM =          15           9
          49
 =================================================
 W R F - G C   T I M E R S
    Domain           1 (Units: s)
 =================================================
  => Coupler Component                       1.939
   -- Physics & Parameterization             0.508
   -- Diagnostics Out                        0.000
  => GEOS-Chem Column                      192.668
  ===> Total Chemistry                     194.608
  => WRF                                  1042.699
  ===> Total WRF-GC                       1237.307
 max optd  1.9364301E+31
 max taucldi  9.2525575E-03
 max taucldw  2.2172488E-05
 Switching is not necessary as we are already
 in the right domain!
 GIGC_Chunk_Run: Running for in-PET grid #           1
 GIGC_Chunk_Run: Received new grid IM, JM, LM =          15           9
          49
 =================================================
 W R F - G C   T I M E R S
    Domain           1 (Units: s)
 =================================================
  => Coupler Component                       1.973
   -- Physics & Parameterization             0.517
   -- Diagnostics Out                        0.000
  => GEOS-Chem Column                      193.714
  ===> Total Chemistry                     195.687
  => WRF                                  1060.856
  ===> Total WRF-GC                       1256.543
 max optd  1.9364301E+31
 max taucldi  9.5810657E-03
 max taucldw  2.2599610E-05
 Switching is not necessary as we are already
 in the right domain!
 GIGC_Chunk_Run: Running for in-PET grid #           1
 GIGC_Chunk_Run: Received new grid IM, JM, LM =          15           9
          49
 =================================================
 W R F - G C   T I M E R S
    Domain           1 (Units: s)
 =================================================
  => Coupler Component                       2.006
   -- Physics & Parameterization             0.526
   -- Diagnostics Out                        0.000
  => GEOS-Chem Column                      194.763
  ===> Total Chemistry                     196.770
  => WRF                                  1079.000
  ===> Total WRF-GC                       1275.770
 max optd  1.9364301E+31
 max taucldi  9.7169811E-03
 max taucldw  8.1398785E-02
 Switching is not necessary as we are already
 in the right domain!
 GIGC_Chunk_Run: Running for in-PET grid #           1
 GIGC_Chunk_Run: Received new grid IM, JM, LM =          15           9
          49
 =================================================
 W R F - G C   T I M E R S
    Domain           1 (Units: s)
 =================================================
  => Coupler Component                       2.040
   -- Physics & Parameterization             0.535
   -- Diagnostics Out                        0.000
  => GEOS-Chem Column                      195.812
  ===> Total Chemistry                     197.851
  => WRF                                  1097.101
  ===> Total WRF-GC                       1294.953
 max optd  1.9364301E+31
 max taucldi  9.6738702E-03
 max taucldw  0.2769639    
 Switching is not necessary as we are already
 in the right domain!
 GIGC_Chunk_Run: Running for in-PET grid #           1
 GIGC_Chunk_Run: Received new grid IM, JM, LM =          15           9
          49
 =================================================
 W R F - G C   T I M E R S
    Domain           1 (Units: s)
 =================================================
  => Coupler Component                       2.075
   -- Physics & Parameterization             0.544
   -- Diagnostics Out                        0.000
  => GEOS-Chem Column                      196.856
  ===> Total Chemistry                     198.932
  => WRF                                  1115.167
  ===> Total WRF-GC                       1314.099
 HOURLY EMISSIONS UPDATE TIME    18000.0       0.0
mediation_integrate: med_read_wrf_chem_emissions: Read emissions for time 2018-01-01_05:00:00
 max optd  1.9364301E+31
 max taucldi  9.5133465E-03
 max taucldw  0.5454460    
 Switching is not necessary as we are already
 in the right domain!
 GIGC_Chunk_Run: Running for in-PET grid #           1
 GIGC_Chunk_Run: Received new grid IM, JM, LM =          15           9
          49
 =================================================
 W R F - G C   T I M E R S
    Domain           1 (Units: s)
 =================================================
  => Coupler Component                       2.107
   -- Physics & Parameterization             0.553
   -- Diagnostics Out                        0.000
  => GEOS-Chem Column                      197.904
  ===> Total Chemistry                     200.011
  => WRF                                  1133.347
  ===> Total WRF-GC                       1333.359
 max optd  1.9364301E+31
 max taucldi  8.7064365E-03
 max taucldw  0.8600079    
 Switching is not necessary as we are already
 in the right domain!
 GIGC_Chunk_Run: Running for in-PET grid #           1
 GIGC_Chunk_Run: Received new grid IM, JM, LM =          15           9
          49
 =================================================
 W R F - G C   T I M E R S
    Domain           1 (Units: s)
 =================================================
  => Coupler Component                       2.142
   -- Physics & Parameterization             0.562
   -- Diagnostics Out                        0.000
  => GEOS-Chem Column                      198.928
  ===> Total Chemistry                     201.070
  => WRF                                  1151.466
  ===> Total WRF-GC                       1352.536
 max optd  1.9364301E+31
 max taucldi  7.4145962E-03
 max taucldw   1.304306    
 Switching is not necessary as we are already
 in the right domain!
 GIGC_Chunk_Run: Running for in-PET grid #           1
 GIGC_Chunk_Run: Received new grid IM, JM, LM =          15           9
          49
 =================================================
 W R F - G C   T I M E R S
    Domain           1 (Units: s)
 =================================================
  => Coupler Component                       2.180
   -- Physics & Parameterization             0.571
   -- Diagnostics Out                        0.000
  => GEOS-Chem Column                      199.955
  ===> Total Chemistry                     202.135
  => WRF                                  1169.600
  ===> Total WRF-GC                       1371.734
 max optd  1.9364301E+31
 max taucldi  7.0310626E-03
 max taucldw   1.767193    
 Switching is not necessary as we are already
 in the right domain!
 GIGC_Chunk_Run: Running for in-PET grid #           1
 GIGC_Chunk_Run: Received new grid IM, JM, LM =          15           9
          49
 =================================================
 W R F - G C   T I M E R S
    Domain           1 (Units: s)
 =================================================
  => Coupler Component                       2.214
   -- Physics & Parameterization             0.580
   -- Diagnostics Out                        0.000
  => GEOS-Chem Column                      201.003
  ===> Total Chemistry                     203.217
  => WRF                                  1187.766
  ===> Total WRF-GC                       1390.982
 max optd  1.9364301E+31
 max taucldi  6.5253605E-03
 max taucldw   2.059833    
 Switching is not necessary as we are already
 in the right domain!
 GIGC_Chunk_Run: Running for in-PET grid #           1
 GIGC_Chunk_Run: Received new grid IM, JM, LM =          15           9
          49
 =================================================
 W R F - G C   T I M E R S
    Domain           1 (Units: s)
 =================================================
  => Coupler Component                       2.253
   -- Physics & Parameterization             0.589
   -- Diagnostics Out                        0.000
  => GEOS-Chem Column                      202.022
  ===> Total Chemistry                     204.276
  => WRF                                  1205.951
  ===> Total WRF-GC                       1410.227
 max optd  1.9364301E+31
 max taucldi  6.1516296E-03
 max taucldw   2.300665    
 Switching is not necessary as we are already
 in the right domain!
 GIGC_Chunk_Run: Running for in-PET grid #           1
 GIGC_Chunk_Run: Received new grid IM, JM, LM =          15           9
          49
 =================================================
 W R F - G C   T I M E R S
    Domain           1 (Units: s)
 =================================================
  => Coupler Component                       2.292
   -- Physics & Parameterization             0.598
   -- Diagnostics Out                        0.000
  => GEOS-Chem Column                      203.049
  ===> Total Chemistry                     205.341
  => WRF                                  1224.075
  ===> Total WRF-GC                       1429.416
 max optd  1.9364301E+31
 max taucldi  6.4604105E-03
 max taucldw   2.239029    
 Switching is not necessary as we are already
 in the right domain!
 GIGC_Chunk_Run: Running for in-PET grid #           1
 GIGC_Chunk_Run: Received new grid IM, JM, LM =          15           9
          49
 =================================================
 W R F - G C   T I M E R S
    Domain           1 (Units: s)
 =================================================
  => Coupler Component                       2.329
   -- Physics & Parameterization             0.607
   -- Diagnostics Out                        0.000
  => GEOS-Chem Column                      204.075
  ===> Total Chemistry                     206.404
  => WRF                                  1242.305
  ===> Total WRF-GC                       1448.709
 max optd  1.9364301E+31
 max taucldi  5.7547130E-03
 max taucldw   1.805408    
 Switching is not necessary as we are already
 in the right domain!
 GIGC_Chunk_Run: Running for in-PET grid #           1
 GIGC_Chunk_Run: Received new grid IM, JM, LM =          15           9
          49
 =================================================
 W R F - G C   T I M E R S
    Domain           1 (Units: s)
 =================================================
  => Coupler Component                       2.364
   -- Physics & Parameterization             0.616
   -- Diagnostics Out                        0.000
  => GEOS-Chem Column                      205.121
  ===> Total Chemistry                     207.485
  => WRF                                  1260.442
  ===> Total WRF-GC                       1467.927
 max optd  1.9364301E+31
 max taucldi  5.2103079E-03
 max taucldw  0.9883770    
 Switching is not necessary as we are already
 in the right domain!
 GIGC_Chunk_Run: Running for in-PET grid #           1
 GIGC_Chunk_Run: Received new grid IM, JM, LM =          15           9
          49
 =================================================
 W R F - G C   T I M E R S
    Domain           1 (Units: s)
 =================================================
  => Coupler Component                       2.401
   -- Physics & Parameterization             0.625
   -- Diagnostics Out                        0.000
  => GEOS-Chem Column                      206.145
  ===> Total Chemistry                     208.546
  => WRF                                  1278.621
  ===> Total WRF-GC                       1487.168
 max optd  1.9364301E+31
 max taucldi  4.9749613E-03
 max taucldw  0.2562911    
 Switching is not necessary as we are already
 in the right domain!
 GIGC_Chunk_Run: Running for in-PET grid #           1
 GIGC_Chunk_Run: Received new grid IM, JM, LM =          15           9
          49
 =================================================
 W R F - G C   T I M E R S
    Domain           1 (Units: s)
 =================================================
  => Coupler Component                       2.434
   -- Physics & Parameterization             0.634
   -- Diagnostics Out                        0.000
  => GEOS-Chem Column                      207.190
  ===> Total Chemistry                     209.624
  => WRF                                  1297.053
  ===> Total WRF-GC                       1506.677
 max optd  1.9364301E+31
 max taucldi  4.8196795E-03
 max taucldw  0.2069975    
 Switching is not necessary as we are already
 in the right domain!
 GIGC_Chunk_Run: Running for in-PET grid #           1
 GIGC_Chunk_Run: Received new grid IM, JM, LM =          15           9
          49
 =================================================
 W R F - G C   T I M E R S
    Domain           1 (Units: s)
 =================================================
  => Coupler Component                       2.468
   -- Physics & Parameterization             0.643
   -- Diagnostics Out                        0.000
  => GEOS-Chem Column                      208.237
  ===> Total Chemistry                     210.705
  => WRF                                  1315.199
  ===> Total WRF-GC                       1525.904
 max optd  1.9364301E+31
 max taucldi  4.7866143E-03
 max taucldw  1.8072702E-05
 Switching is not necessary as we are already
 in the right domain!
 GIGC_Chunk_Run: Running for in-PET grid #           1
 GIGC_Chunk_Run: Received new grid IM, JM, LM =          15           9
          49
 =================================================
 W R F - G C   T I M E R S
    Domain           1 (Units: s)
 =================================================
  => Coupler Component                       2.504
   -- Physics & Parameterization             0.652
   -- Diagnostics Out                        0.000
  => GEOS-Chem Column                      209.270
  ===> Total Chemistry                     211.774
  => WRF                                  1333.334
  ===> Total WRF-GC                       1545.108
 HOURLY EMISSIONS UPDATE TIME    21600.0       0.0
mediation_integrate: med_read_wrf_chem_emissions: Read emissions for time 2018-01-01_06:00:00
 max optd  1.9364301E+31
 max taucldi  4.7642519E-03
 max taucldw  1.7682260E-05
 Switching is not necessary as we are already
 in the right domain!
 GIGC_Chunk_Run: Running for in-PET grid #           1
 GIGC_Chunk_Run: Received new grid IM, JM, LM =          15           9
          49
 =================================================
 W R F - G C   T I M E R S
    Domain           1 (Units: s)
 =================================================
  => Coupler Component                       2.539
   -- Physics & Parameterization             0.661
   -- Diagnostics Out                        0.000
  => GEOS-Chem Column                      210.320
  ===> Total Chemistry                     212.859
  => WRF                                  1792.031
  ===> Total WRF-GC                       2004.890
 max optd  1.9364301E+31
 max taucldi  4.6481290E-03
 max taucldw  1.7184781E-05
 Switching is not necessary as we are already
 in the right domain!
 GIGC_Chunk_Run: Running for in-PET grid #           1
 GIGC_Chunk_Run: Received new grid IM, JM, LM =          15           9
          49
 =================================================
 W R F - G C   T I M E R S
    Domain           1 (Units: s)
 =================================================
  => Coupler Component                       2.579
   -- Physics & Parameterization             0.670
   -- Diagnostics Out                        0.000
  => GEOS-Chem Column                      211.347
  ===> Total Chemistry                     213.926
  => WRF                                  1810.177
  ===> Total WRF-GC                       2024.103
 max optd  1.9364301E+31
 max taucldi  4.3708654E-03
 max taucldw  1.6682199E-05
 Switching is not necessary as we are already
 in the right domain!
 GIGC_Chunk_Run: Running for in-PET grid #           1
 GIGC_Chunk_Run: Received new grid IM, JM, LM =          15           9
          49
 =================================================
 W R F - G C   T I M E R S
    Domain           1 (Units: s)
 =================================================
  => Coupler Component                       2.616
   -- Physics & Parameterization             0.679
   -- Diagnostics Out                        0.000
  => GEOS-Chem Column                      212.386
  ===> Total Chemistry                     215.002
  => WRF                                  1828.476
  ===> Total WRF-GC                       2043.478
 max optd  1.9364301E+31
 max taucldi  3.9519966E-03
 max taucldw  1.6252792E-05
 Switching is not necessary as we are already
 in the right domain!
 GIGC_Chunk_Run: Running for in-PET grid #           1
 GIGC_Chunk_Run: Received new grid IM, JM, LM =          15           9
          49
 =================================================
 W R F - G C   T I M E R S
    Domain           1 (Units: s)
 =================================================
  => Coupler Component                       2.649
[...]
  => GEOS-Chem Column                      259.736
  ===> Total Chemistry                     263.880
  => WRF                                  2646.893
  ===> Total WRF-GC                       2910.773
 HOURLY EMISSIONS UPDATE TIME    36000.0       0.0
mediation_integrate: med_read_wrf_chem_emissions: Read emissions for time 2018-01-01_10:00:00
 max optd  1.9364301E+31
 max taucldi  2.2107612E-03
 max taucldw  2.6779973E-05
 Switching is not necessary as we are already
 in the right domain!
 GIGC_Chunk_Run: Running for in-PET grid #           1
 GIGC_Chunk_Run: Received new grid IM, JM, LM =          15           9
          49
 =================================================
 W R F - G C   T I M E R S
    Domain           1 (Units: s)
 =================================================
  => Coupler Component                       4.178
   -- Physics & Parameterization             1.093
   -- Diagnostics Out                        0.000
  => GEOS-Chem Column                      260.790
  ===> Total Chemistry                     264.968
  => WRF                                  2665.130
  ===> Total WRF-GC                       2930.098
 max optd  1.9364301E+31
 max taucldi  4.7000341E-02
 max taucldw  2.6666854E-05
 Switching is not necessary as we are already
 in the right domain!
 GIGC_Chunk_Run: Running for in-PET grid #           1
 GIGC_Chunk_Run: Received new grid IM, JM, LM =          15           9
          49
 =================================================
 W R F - G C   T I M E R S
    Domain           1 (Units: s)
 =================================================
  => Coupler Component                       4.211
   -- Physics & Parameterization             1.102
   -- Diagnostics Out                        0.000
  => GEOS-Chem Column                      261.848
  ===> Total Chemistry                     266.059
  => WRF                                  2683.289
  ===> Total WRF-GC                       2949.348
 max optd  1.9364301E+31
 max taucldi  7.9713315E-02
 max taucldw  2.6607127E-05
 Switching is not necessary as we are already
 in the right domain!
 GIGC_Chunk_Run: Running for in-PET grid #           1
 GIGC_Chunk_Run: Received new grid IM, JM, LM =          15           9
          49
 =================================================
 W R F - G C   T I M E R S
    Domain           1 (Units: s)
 =================================================
  => Coupler Component                       4.243
   -- Physics & Parameterization             1.111
   -- Diagnostics Out                        0.000
  => GEOS-Chem Column                      262.912
  ===> Total Chemistry                     267.155
  => WRF                                  2701.433
  ===> Total WRF-GC                       2968.588
 max optd  1.9364301E+31
 max taucldi  0.1167402    
 max taucldw  2.6627784E-05
 Switching is not necessary as we are already
 in the right domain!
 GIGC_Chunk_Run: Running for in-PET grid #           1
 GIGC_Chunk_Run: Received new grid IM, JM, LM =          15           9
          49
 =================================================
 W R F - G C   T I M E R S
    Domain           1 (Units: s)
 =================================================
  => Coupler Component                       4.277
   -- Physics & Parameterization             1.120
   -- Diagnostics Out                        0.000
  => GEOS-Chem Column                      263.969
  ===> Total Chemistry                     268.245
  => WRF                                  2719.670
  ===> Total WRF-GC                       2987.915
 max optd  1.9364301E+31
 max taucldi  0.1436486    
 max taucldw  2.6750677E-05
 Switching is not necessary as we are already
 in the right domain!
 GIGC_Chunk_Run: Running for in-PET grid #           1
 GIGC_Chunk_Run: Received new grid IM, JM, LM =          15           9
          49
 =================================================
 W R F - G C   T I M E R S
    Domain           1 (Units: s)
 =================================================
  => Coupler Component                       4.309
   -- Physics & Parameterization             1.129
   -- Diagnostics Out                        0.000
  => GEOS-Chem Column                      265.023
  ===> Total Chemistry                     269.333
  => WRF                                  2737.855
  ===> Total WRF-GC                       3007.187
 max optd  1.9364301E+31
 max taucldi  0.1467610    
 max taucldw  2.7017451E-05
 Switching is not necessary as we are already
 in the right domain!
 GIGC_Chunk_Run: Running for in-PET grid #           1
 GIGC_Chunk_Run: Received new grid IM, JM, LM =          15           9
          49
 =================================================
 W R F - G C   T I M E R S
    Domain           1 (Units: s)
 =================================================
  => Coupler Component                       4.343
   -- Physics & Parameterization             1.138
   -- Diagnostics Out                        0.000
  => GEOS-Chem Column                      266.066
  ===> Total Chemistry                     270.409
  => WRF                                  2755.968
  ===> Total WRF-GC                       3026.378
 max optd  1.9364301E+31
 max taucldi  0.1385640    
 max taucldw  2.7474134E-05
 Switching is not necessary as we are already
 in the right domain!
 GIGC_Chunk_Run: Running for in-PET grid #           1
 GIGC_Chunk_Run: Received new grid IM, JM, LM =          15           9
          49
 =================================================
 W R F - G C   T I M E R S
    Domain           1 (Units: s)
 =================================================
  => Coupler Component                       4.375
   -- Physics & Parameterization             1.147
   -- Diagnostics Out                        0.000
  => GEOS-Chem Column                      267.130
  ===> Total Chemistry                     271.505
  => WRF                                  2774.167
  ===> Total WRF-GC                       3045.672
 max optd  1.9364301E+31
 max taucldi  0.1177402    
 max taucldw  2.8131180E-05
 Switching is not necessary as we are already
 in the right domain!
 GIGC_Chunk_Run: Running for in-PET grid #           1
 GIGC_Chunk_Run: Received new grid IM, JM, LM =          15           9
          49
 =================================================
 W R F - G C   T I M E R S
    Domain           1 (Units: s)
 =================================================
  => Coupler Component                       4.406
   -- Physics & Parameterization             1.156
   -- Diagnostics Out                        0.000
  => GEOS-Chem Column                      268.180
  ===> Total Chemistry                     272.586
  => WRF                                  2792.325
  ===> Total WRF-GC                       3064.911
 max optd  1.9364301E+31
 max taucldi  9.0845421E-02
 max taucldw  2.8974886E-05
 Switching is not necessary as we are already
 in the right domain!
 GIGC_Chunk_Run: Running for in-PET grid #           1
 GIGC_Chunk_Run: Received new grid IM, JM, LM =          15           9
          49
 =================================================
 W R F - G C   T I M E R S
    Domain           1 (Units: s)
 =================================================
  => Coupler Component                       4.442
   -- Physics & Parameterization             1.166
   -- Diagnostics Out                        0.000
  => GEOS-Chem Column                      269.227
  ===> Total Chemistry                     273.669
  => WRF                                  2810.475
  ===> Total WRF-GC                       3084.144
 max optd  1.9364301E+31
 max taucldi  7.5418852E-02
 max taucldw  2.9976141E-05
 Switching is not necessary as we are already
 in the right domain!
 GIGC_Chunk_Run: Running for in-PET grid #           1
 GIGC_Chunk_Run: Received new grid IM, JM, LM =          15           9
          49
 =================================================
 W R F - G C   T I M E R S
    Domain           1 (Units: s)
 =================================================
  => Coupler Component                       4.474
   -- Physics & Parameterization             1.175
   -- Diagnostics Out                        0.000
  => GEOS-Chem Column                      270.288
  ===> Total Chemistry                     274.762
  => WRF                                  2828.698
  ===> Total WRF-GC                       3103.460
 max optd  1.9364301E+31
 max taucldi  6.7181572E-02
 max taucldw  3.1080202E-05
 Switching is not necessary as we are already
 in the right domain!
 GIGC_Chunk_Run: Running for in-PET grid #           1
 GIGC_Chunk_Run: Received new grid IM, JM, LM =          15           9
          49
 =================================================
 W R F - G C   T I M E R S
    Domain           1 (Units: s)
 =================================================
  => Coupler Component                       4.508
   -- Physics & Parameterization             1.184
   -- Diagnostics Out                        0.000
  => GEOS-Chem Column                      271.336
  ===> Total Chemistry                     275.843
  => WRF                                  2846.842
  ===> Total WRF-GC                       3122.685
 max optd  1.9364301E+31
 max taucldi  5.7266980E-02
 max taucldw  3.2243428E-05
 Switching is not necessary as we are already
 in the right domain!
 GIGC_Chunk_Run: Running for in-PET grid #           1
 GIGC_Chunk_Run: Received new grid IM, JM, LM =          15           9
          49
 =================================================
 W R F - G C   T I M E R S
    Domain           1 (Units: s)
 =================================================
  => Coupler Component                       4.539
   -- Physics & Parameterization             1.193
   -- Diagnostics Out                        0.000
  => GEOS-Chem Column                      272.404
  ===> Total Chemistry                     276.943
  => WRF                                  2865.070
  ===> Total WRF-GC                       3142.013
 HOURLY EMISSIONS UPDATE TIME    39600.0       0.0
mediation_integrate: med_read_wrf_chem_emissions: Read emissions for time 2018-01-01_11:00:00
 max optd  1.9364301E+31
 max taucldi  4.2168908E-02
 max taucldw  3.3441331E-05
 Switching is not necessary as we are already
 in the right domain!
 GIGC_Chunk_Run: Running for in-PET grid #           1
 GIGC_Chunk_Run: Received new grid IM, JM, LM =          15           9
          49
 =================================================
 W R F - G C   T I M E R S
    Domain           1 (Units: s)
 =================================================
  => Coupler Component                       4.571
   -- Physics & Parameterization             1.202
   -- Diagnostics Out                        0.000
  => GEOS-Chem Column                      273.461
  ===> Total Chemistry                     278.032
  => WRF                                  2883.248
  ===> Total WRF-GC                       3161.280
 max optd  1.9364301E+31
 max taucldi  3.9215256E-02
 max taucldw  3.4663641E-05
 Switching is not necessary as we are already
 in the right domain!
 GIGC_Chunk_Run: Running for in-PET grid #           1
 GIGC_Chunk_Run: Received new grid IM, JM, LM =          15           9
          49
 =================================================
 W R F - G C   T I M E R S
    Domain           1 (Units: s)
 =================================================
  => Coupler Component                       4.602
   -- Physics & Parameterization             1.211
   -- Diagnostics Out                        0.000
  => GEOS-Chem Column                      274.514
  ===> Total Chemistry                     279.116
  => WRF                                  2901.372
  ===> Total WRF-GC                       3180.488
 max optd  1.9364301E+31
 max taucldi  4.1377056E-02
 max taucldw  3.5903824E-05
 Switching is not necessary as we are already
 in the right domain!
 GIGC_Chunk_Run: Running for in-PET grid #           1
 GIGC_Chunk_Run: Received new grid IM, JM, LM =          15           9
          49
 =================================================
 W R F - G C   T I M E R S
    Domain           1 (Units: s)
 =================================================
  => Coupler Component                       4.633
   -- Physics & Parameterization             1.220
   -- Diagnostics Out                        0.000
  => GEOS-Chem Column                      275.576
  ===> Total Chemistry                     280.210
  => WRF                                  2919.624
  ===> Total WRF-GC                       3199.834
 max optd  1.9364301E+31
 max taucldi  3.3169724E-02
 max taucldw  3.7150563E-05
 Switching is not necessary as we are already
 in the right domain!
 GIGC_Chunk_Run: Running for in-PET grid #           1
 GIGC_Chunk_Run: Received new grid IM, JM, LM =          15           9
          49
 =================================================
 W R F - G C   T I M E R S
    Domain           1 (Units: s)
 =================================================
  => Coupler Component                       4.665
   -- Physics & Parameterization             1.229
   -- Diagnostics Out                        0.000
  => GEOS-Chem Column                      276.643
  ===> Total Chemistry                     281.308
  => WRF                                  2937.905
  ===> Total WRF-GC                       3219.213
 max optd  1.9364301E+31
 max taucldi  4.8954643E-02
 max taucldw  3.8379807E-05
 Switching is not necessary as we are already
 in the right domain!
 GIGC_Chunk_Run: Running for in-PET grid #           1
 GIGC_Chunk_Run: Received new grid IM, JM, LM =          15           9
          49
 =================================================
 W R F - G C   T I M E R S
    Domain           1 (Units: s)
 =================================================
  => Coupler Component                       4.698
   -- Physics & Parameterization             1.238
   -- Diagnostics Out                        0.000
  => GEOS-Chem Column                      277.706
  ===> Total Chemistry                     282.403
  => WRF                                  2956.322
  ===> Total WRF-GC                       3238.725
 max optd  1.9364301E+31
 max taucldi  3.4346886E-02
 max taucldw  3.9561102E-05
 Switching is not necessary as we are already
 in the right domain!
 GIGC_Chunk_Run: Running for in-PET grid #           1
 GIGC_Chunk_Run: Received new grid IM, JM, LM =          15           9
          49
 =================================================
 W R F - G C   T I M E R S
    Domain           1 (Units: s)
 =================================================
  => Coupler Component                       4.731
   -- Physics & Parameterization             1.248
   -- Diagnostics Out                        0.000
  => GEOS-Chem Column                      278.754
  ===> Total Chemistry                     283.484
  => WRF                                  2974.717
  ===> Total WRF-GC                       3258.201
 max optd  1.9364301E+31
 max taucldi  4.1974977E-02
 max taucldw  4.0677507E-05
 Switching is not necessary as we are already
 in the right domain!
 GIGC_Chunk_Run: Running for in-PET grid #           1
 GIGC_Chunk_Run: Received new grid IM, JM, LM =          15           9
          49
 =================================================
 W R F - G C   T I M E R S
    Domain           1 (Units: s)
 =================================================
  => Coupler Component                       4.762
   -- Physics & Parameterization             1.257
   -- Diagnostics Out                        0.000
  => GEOS-Chem Column                      279.819
  ===> Total Chemistry                     284.581
  => WRF                                  2993.267
  ===> Total WRF-GC                       3277.848
 max optd  1.9364301E+31
 max taucldi  2.4678180E-02
 max taucldw  4.1721578E-05
 Switching is not necessary as we are already
 in the right domain!
 GIGC_Chunk_Run: Running for in-PET grid #           1
 GIGC_Chunk_Run: Received new grid IM, JM, LM =          15           9
          49
 =================================================
 W R F - G C   T I M E R S
    Domain           1 (Units: s)
 =================================================
  => Coupler Component                       4.797
   -- Physics & Parameterization             1.266
   -- Diagnostics Out                        0.000
  => GEOS-Chem Column                      280.874
  ===> Total Chemistry                     285.671
  => WRF                                  3011.831
  ===> Total WRF-GC                       3297.502
 max optd  1.9364301E+31
 max taucldi  2.4923714E-02
 max taucldw  4.2701558E-05
 Switching is not necessary as we are already
 in the right domain!
 GIGC_Chunk_Run: Running for in-PET grid #           1
 GIGC_Chunk_Run: Received new grid IM, JM, LM =          15           9
          49
 =================================================
 W R F - G C   T I M E R S
    Domain           1 (Units: s)
 =================================================
  => Coupler Component                       4.827
   -- Physics & Parameterization             1.275
   -- Diagnostics Out                        0.000
  => GEOS-Chem Column                      281.945
  ===> Total Chemistry                     286.772
  => WRF                                  3030.512
  ===> Total WRF-GC                       3317.284
 max optd  1.9364301E+31
 max taucldi  2.1378441E-02
 max taucldw  4.4426091E-05
 Switching is not necessary as we are already
 in the right domain!
 GIGC_Chunk_Run: Running for in-PET grid #           1
 GIGC_Chunk_Run: Received new grid IM, JM, LM =          15           9
          49
 =================================================
 W R F - G C   T I M E R S
    Domain           1 (Units: s)
 =================================================
  => Coupler Component                       4.859
   -- Physics & Parameterization             1.284
   -- Diagnostics Out                        0.000
  => GEOS-Chem Column                      283.004
  ===> Total Chemistry                     287.863
  => WRF                                  3049.420
  ===> Total WRF-GC                       3337.282
 max optd  1.9364301E+31
 max taucldi  2.6157530E-02
 max taucldw  4.6361223E-05
 Switching is not necessary as we are already
 in the right domain!
 GIGC_Chunk_Run: Running for in-PET grid #           1
 GIGC_Chunk_Run: Received new grid IM, JM, LM =          15           9
          49
 =================================================
 W R F - G C   T I M E R S
    Domain           1 (Units: s)
 =================================================
  => Coupler Component                       4.894
   -- Physics & Parameterization             1.293
   -- Diagnostics Out                        0.000
  => GEOS-Chem Column                      284.040
  ===> Total Chemistry                     288.934
  => WRF                                  3068.227
  ===> Total WRF-GC                       3357.161
 max optd  1.9364301E+31
 max taucldi  2.5585234E-02
 max taucldw  4.8355952E-05
 Switching is not necessary as we are already
 in the right domain!
 GIGC_Chunk_Run: Running for in-PET grid #           1
 GIGC_Chunk_Run: Received new grid IM, JM, LM =          15           9
          49
 =================================================
 W R F - G C   T I M E R S
    Domain           1 (Units: s)
 =================================================
  => Coupler Component                       4.926
   -- Physics & Parameterization             1.302
   -- Diagnostics Out                        0.000
  => GEOS-Chem Column                      285.085
  ===> Total Chemistry                     290.011
  => WRF                                  3086.996
  ===> Total WRF-GC                       3377.007
d01 2018-01-01_12:00:00 wrf: SUCCESS COMPLETE WRF
