taskid: 3074 hostname: ip-172-31-10-224
Quilting with   1 groups of   0 I/O tasks.
 Ntasks in X           64 , ntasks in Y           72
--- WARNING: traj_opt is zero, but num_traj is not zero; setting num_traj to zero.
--- NOTE: sst_update is 0, setting io_form_auxinput4 = 0 and auxinput4_interval = 0 for all domains
--- NOTE: grid_fdda is 0 for domain      1, setting gfdda interval and ending time to 0 for that domain.
--- NOTE: both grid_sfdda and pxlsm_soil_nudge are 0 for domain      1, setting sgfdda interval and ending time to 0 for that domain.
--- NOTE: obs_nudge_opt is 0 for domain      1, setting obs nudging interval and ending time to 0 for that domain.
--- NOTE: bl_pbl_physics /= 4, implies mfshconv must be 0, resetting
Need MYNN PBL for icloud_bl = 1, resetting to 0
*************************************
No physics suite selected.
Physics options will be used directly from the namelist.
*************************************
--- NOTE: RRTMG radiation is in use, setting:  levsiz=59, alevsiz=12, no_src_types=6
--- NOTE: num_soil_layers has been set to      4
WRF V3.9.1.1 MODEL
 *************************************
 Parent domain
 ids,ide,jds,jde            1         950           1         650
 ims,ime,jms,jme           24          52         427         449
 ips,ipe,jps,jpe           31          45         434         442
 *************************************
DYNAMICS OPTION: Eulerian Mass Coordinate
   alloc_space_field: domain            1 ,              203623800  bytes allocated
  med_initialdata_input: calling input_input
Max map factor in domain 1 =  1.40. Scale the dt in the model accordingly.
INPUT LandUse = "USGS"
 LANDUSE TYPE = "USGS" FOUND          33  CATEGORIES           2  SEASONS WATER CATEGORY =           16  SNOW CATEGORY =           24
INITIALIZE THREE Noah LSM RELATED TABLES
*****************************************************************
  __          _______  ______       _____  _____ _    _ _____
  \ \        / /  __ \|  ____|     / ____|/ ____| |  | |  __ \
   \ \  /\  / /| |__) | |__ ______| |  __| |    | |__| | |__) |
    \ \/  \/ / |  _  /|  __|______| | |_ | |    |  __  |  ___/
     \  /\  /  | | \ \| |         | |__| | |____| |  | | |
      \/  \/   |_|  \_\_|          \_____|\_____|_|  |_|_|
*****************************************************************
         WRF-GC MODEL, VERSION 1811.11 - WRF BINDINGS
 For errors, suggestions & feedback email linhaipeng@pku.edu.cn
*****************************************************************
    This is domain            1
 ### GIGC_Stateful_Mod: Root CPU, after READ_INPUT_FILE
  Linoz Data:  O3 climatology :                  z*=10, 12, ..., 58                             2.700E-08 1.083E-05
  Linoz Data:  Temperature climatology :         z*=10, 12, ..., 58                             1.859E+02 2.904E+02
  Linoz Data:  Column O3 above box climalology : z*=10, 12, ..., 58                             7.538E-02 3.770E+02
  Linoz Data:  P-L O3 climatology (mr/s):        z*=10, 12, ..., 58                            -1.590E-10 2.835E-11
  Linoz Data:  d(P-L)/dO3 (1/s) :                z*=10, 12, ..., 58                            -8.386E-04 7.556E-09
  Linoz Data:  d(P-L)/dT (mr/K) :                z*=10, 12, ..., 58                            -5.742E-12 4.615E-14
  Linoz Data:  d(P-L)/d(column O3) (mr/DU) :     z*=10, 12, ..., 58                            -1.921E-12 5.038E-10
 ### GIGC_Stateful_Mod: Root CPU, after LINOZ_READ
 %%%%%%%%% GIGC IN-PET GRID SWITCHING HACKS %%%%%%%%%
     (Not very) Proudly brought to you by hplin      
 Some debug information:
 ID:           1
 IM, JM, LM:          15           9          49  will be set as PAR
 Allocs: CMN T GC F
 RC at entry-point:           0
 %%%%%%%%%%%%%%%%%%%%%%%%%%%%%%%%%%%%%%%%%%%%%%%%%%%%
 No need to switch HcoState for ID           1
 Exit RC:            0
 %%%%%%%%%    FINISHED GIGC_Switch_Dims    %%%%%%%%%
 GIGC_Chunk_Init: Received new grid IM, JM, LM =          15           9
          49
     ### GIGC_INIT_SIMULATION: after Input_Opt% setups
     ### GIGC_INIT_SIMULATION: after GC_Init_All
     ### GIGC_INIT_SIMULATION: after GC_Init_Extra
     ### GIGC_INIT_SIMULATION: after INIT_FJX
 # GIGC_CHUNK_MOD: after SV save, ID =           1
 WRFGC chemics_init: Following information regarding Input_Opt% (for all doms)
 After domain           1
 HPC:  T
 LPRT:  F
 DoConv:  T
 DoDryDep:  T
 DoEmis:  T
 DoChem:  T
 DoTurb:  T
 DoWetDep:  T

 tropopause_init: DONE intialized domain            1

 mediation_integrate: med_read_wrf_chem_emissions: Open file wrfchemi_00z_d01
 HOURLY EMISSIONS UPDATE TIME        0.0       0.0
mediation_integrate: med_read_wrf_chem_emissions: Read emissions for time 2018-01-01_00:00:00
open_aux_u : error opening wrffirechemi_d01_2018-01-01_00:00:00 for reading. 100
open_aux_u : error opening wrfchemi_gocart_bg_d01 for reading. 100
d01 2018-01-01_00:00:00 Input data processed for aux input   8 for domain   1
open_aux_u : error opening wrfchemv_d01 for reading. 100
 Tile Strategy is not specified. Assuming 1D-Y
WRF TILE   1 IS     31 IE     45 JS    434 JE    442
WRF NUMBER OF TILES =   1
 max optd  3.3547268E+12
 max taucldi  0.0000000E+00
 max taucldw  0.0000000E+00
 =================================================
 W R F - G C   T I M E R S
    Domain           1 (Units: s)
 =================================================
  => Coupler Component                       0.027
   -- Physics & Parameterization             0.001
   -- Diagnostics Out                        0.000
  => GEOS-Chem Column                        0.000
  ===> Total Chemistry                       0.027
  => WRF                                     0.000
  ===> Total WRF-GC                          0.027
 max optd  3.3547268E+12
 max taucldi  1.0000007E-14
 max taucldw  1.0000007E-14
 %%%%%%%%% GIGC IN-PET GRID SWITCHING HACKS %%%%%%%%%
     (Not very) Proudly brought to you by hplin      
 Some debug information:
 ID:           1
 IM, JM, LM:          15           9          49  will be set as PAR
 Allocs: CMN T GC T
 RC at entry-point:           0
 %%%%%%%%%%%%%%%%%%%%%%%%%%%%%%%%%%%%%%%%%%%%%%%%%%%%
 No need to switch HcoState for ID           1
 Debug HcoState nSpc, NX, NY, NZ         163          15           9          49
 Exit RC:            0
 %%%%%%%%%    FINISHED GIGC_Switch_Dims    %%%%%%%%%
 GIGC_Chunk_Run: Running for in-PET grid #           1
 GIGC_Chunk_Run: Received new grid IM, JM, LM =          15           9
          49
HEMCO: Opening /fsx/HEMCO/BIOFUEL/v2014-07/biofuel.geos.4x5.nc
HEMCO: Opening /fsx/HEMCO/BROMINE/v2015-02/Bromocarb_Liang2010.nc
HEMCO: Opening /fsx/HEMCO/ACET/v2014-07/ACET_seawater.generic.1x1.nc
HEMCO: Opening /fsx/HEMCO/SOILNOX/v2014-07/DepReservoirDefault.nc
HEMCO: Opening /fsx/HEMCO/SOILNOX/v2014-07/soilNOx.landtype.generic.025x025.1L.nc
HEMCO: Opening /fsx/HEMCO/SOILNOX/v2014-07/soilNOx.climate.generic.05x05.nc
HEMCO: Opening /fsx/HEMCO/DUST_DEAD/v2014-07/dst_tibds.geos.4x5.nc
HEMCO: Opening /fsx/HEMCO/DUST_DEAD/v2014-07/GOCART_src_fn.geos.4x5.nc
HEMCO: Opening /fsx/HEMCO/MEGAN/v2018-05/MEGAN2.1_EF.geos.025x03125.nc
HEMCO: Opening /fsx/HEMCO/MEGAN/v2017-07/CLM4_PFT.geos.025x03125.nc
HEMCO: Opening /fsx/HEMCO/TIMEZONES/v2015-02/timezones_voronoi_1x1.nc
HEMCO: Opening /fsx/HEMCO/STRAT/v2015-01/Bry/GEOSCCM_Bry.200701.day.nc
HEMCO: Opening /fsx/HEMCO/STRAT/v2015-01/Bry/GEOSCCM_Bry.200701.night.nc
HEMCO: Opening /fsx/HEMCO/OMOC/v2018-01/OMOC.DJF.01x01.nc
HEMCO: Opening /fsx/HEMCO/OMOC/v2018-01/OMOC.MAM.01x01.nc
HEMCO: Opening /fsx/HEMCO/OMOC/v2018-01/OMOC.JJA.01x01.nc
HEMCO: Opening /fsx/HEMCO/OMOC/v2018-01/OMOC.SON.01x01.nc
HEMCO: Opening /fsx/HEMCO/AnnualScalar/v2014-07/AnnualScalar.geos.1x1.nc
HEMCO: Opening /fsx/HEMCO/EDGARv42/v2015-02/NO/EDGAR_hourly_NOxScal.nc
HEMCO: Opening /fsx/HEMCO/MASKS/v2018-09/EMEP_mask.geos.1x1.20151222.nc
HEMCO: Opening /fsx/HEMCO/MASKS/v2018-09/Canada_mask.geos.1x1.nc
HEMCO: Opening /fsx/HEMCO/MASKS/v2018-09/SE_Asia_mask.generic.1x1.nc
HEMCO: Opening /fsx/HEMCO/MASKS/v2018-09/MIX_Asia_mask.generic.025x025.nc
HEMCO: Opening /fsx/HEMCO/MASKS/v2018-09/CONUS_Mask.01x01.nc
HEMCO: Opening /fsx/HEMCO/MASKS/v2018-09/AF_LANDMASK.geos.05x0666.global.nc
HEMCO: Opening /fsx/HEMCO/MASKS/v2018-09/China_mask.generic.1x1.nc
HEMCO: Opening /fsx/HEMCO/MASKS/v2018-09/India_mask.generic.1x1.nc
HEMCO: Opening /fsx/HEMCO/AnnualScalar/v2014-07/AnnualScalar.geos.1x1.nc
HEMCO: Opening /fsx/HEMCO/NH3/v2014-07/NH3_geos.4x5.nc
HEMCO: Opening /fsx/HEMCO/NH3/v2018-04/NH3_Arctic_seabirds.nc
HEMCO: Opening /fsx/HEMCO/CEDS/v2018-08/2014/NO-em-anthro_CMIP_CEDS_2014.nc
HEMCO: Opening /fsx/HEMCO/CEDS/v2018-08/2014/CO-em-anthro_CMIP_CEDS_2014.nc
HEMCO: Opening /fsx/HEMCO/CEDS/v2018-08/2014/SO2-em-anthro_CMIP_CEDS_2014.nc
HEMCO: Opening /fsx/HEMCO/CEDS/v2018-08/2014/NH3-em-anthro_CMIP_CEDS_2014.nc
HEMCO: Opening /fsx/HEMCO/CEDS/v2018-08/2014/BC-em-anthro_CMIP_CEDS_2014.nc
HEMCO: Opening /fsx/HEMCO/CEDS/v2018-08/2014/OC-em-anthro_CMIP_CEDS_2014.nc
HEMCO: Opening /fsx/HEMCO/CEDS/v2018-08/2014/EOH-em-anthro_CMIP_CEDS_2014.nc
HEMCO: Opening /fsx/HEMCO/CEDS/v2018-08/2014/C2H6-em-anthro_CMIP_CEDS_2014.nc
HEMCO: Opening /fsx/HEMCO/CEDS/v2018-08/2014/C3H8-em-anthro_CMIP_CEDS_2014.nc
HEMCO: Opening /fsx/HEMCO/CEDS/v2018-08/2014/ALK4_butanes-em-anthro_CMIP_CEDS_2014.nc
HEMCO: Opening /fsx/HEMCO/CEDS/v2018-08/2014/ALK4_pentanes-em-anthro_CMIP_CEDS_2014.nc
HEMCO: Opening /fsx/HEMCO/CEDS/v2018-08/2014/ALK4_hexanes-em-anthro_CMIP_CEDS_2014.nc
HEMCO: Opening /fsx/HEMCO/CEDS/v2018-08/2014/PRPE-em-anthro_CMIP_CEDS_2014.nc
HEMCO: Opening /fsx/HEMCO/CEDS/v2018-08/2014/BENZ-em-anthro_CMIP_CEDS_2014.nc
HEMCO: Opening /fsx/HEMCO/CEDS/v2018-08/2014/TOLU-em-anthro_CMIP_CEDS_2014.nc
HEMCO: Opening /fsx/HEMCO/CEDS/v2018-08/2014/XYLE-em-anthro_CMIP_CEDS_2014.nc
HEMCO: Opening /fsx/HEMCO/CEDS/v2018-08/2014/CH2O-em-anthro_CMIP_CEDS_2014.nc
HEMCO: Opening /fsx/HEMCO/CEDS/v2018-08/2014/ALD2-em-anthro_CMIP_CEDS_2014.nc
HEMCO: Opening /fsx/HEMCO/CEDS/v2018-08/2014/MEK-em-anthro_CMIP_CEDS_2014.nc
HEMCO: Opening /fsx/HEMCO/CEDS/v2018-08/2014/HCOOH-em-anthro_CMIP_CEDS_2014.nc
HEMCO: Opening /fsx/HEMCO/C2H6_2010/v2017-05/C2H6_global_anth_biof.201001.nc
HEMCO: Opening /fsx/HEMCO/NEI2011/v2017-02-MM/01/NEI11_0.1x0.1_201101_monmean.nc
HEMCO: Opening /fsx/HEMCO/NEI2011/v2017-02-MM/01/NEI11_0.1x0.1_201101_monmean_egu.nc
HEMCO: Opening /fsx/HEMCO/NEI2011/v2017-02-MM/01/NEI11_0.1x0.1_201101_monmean_egupk.nc
HEMCO: Opening /fsx/HEMCO/NEI2011/v2017-02-MM/01/NEI11_0.1x0.1_201101_monmean_oilgas.nc
HEMCO: Opening /fsx/HEMCO/NEI2011/v2017-02-MM/01/NEI11_0.1x0.1_201101_monmean_othpt.nc
HEMCO: Opening /fsx/HEMCO/NEI2011/v2017-02-MM/01/NEI11_0.1x0.1_201101_monmean_ptnonipm.nc
HEMCO: Opening /fsx/HEMCO/IODINE/v2017-09/CH3I_monthly_emissions_Ordonez_2012_COARDS.nc
HEMCO: Opening /fsx/HEMCO/IODINE/v2017-09/CH2I2_monthly_emissions_Ordonez_2012_COARDS.nc
HEMCO: Opening /fsx/HEMCO/IODINE/v2017-09/CH2ICl_monthly_emissions_Ordonez_2012_COARDS.nc
HEMCO: Opening /fsx/HEMCO/IODINE/v2017-09/CH2IBr_monthly_emissions_Ordonez_2012_COARDS.nc
HEMCO: Opening /fsx/HEMCO/CEDS/v2018-08/2014/CO-em-anthro_CMIP_CEDS_2014.nc
HEMCO: Opening /fsx/HEMCO/CEDS/v2018-08/2014/SO2-em-anthro_CMIP_CEDS_2014.nc
HEMCO: Opening /fsx/HEMCO/CEDS/v2018-08/2014/NH3-em-anthro_CMIP_CEDS_2014.nc
HEMCO: Opening /fsx/HEMCO/CEDS/v2018-08/2014/BC-em-anthro_CMIP_CEDS_2014.nc
HEMCO: Opening /fsx/HEMCO/CEDS/v2018-08/2014/OC-em-anthro_CMIP_CEDS_2014.nc
HEMCO: Opening /fsx/HEMCO/CEDS/v2018-08/2014/EOH-em-anthro_CMIP_CEDS_2014.nc
HEMCO: Opening /fsx/HEMCO/CEDS/v2018-08/2014/C2H6-em-anthro_CMIP_CEDS_2014.nc
HEMCO: Opening /fsx/HEMCO/CEDS/v2018-08/2014/C3H8-em-anthro_CMIP_CEDS_2014.nc
HEMCO: Opening /fsx/HEMCO/CEDS/v2018-08/2014/ALK4_butanes-em-anthro_CMIP_CEDS_2014.nc
HEMCO: Opening /fsx/HEMCO/CEDS/v2018-08/2014/ALK4_pentanes-em-anthro_CMIP_CEDS_2014.nc
HEMCO: Opening /fsx/HEMCO/CEDS/v2018-08/2014/ALK4_hexanes-em-anthro_CMIP_CEDS_2014.nc
HEMCO: Opening /fsx/HEMCO/CEDS/v2018-08/2014/PRPE-em-anthro_CMIP_CEDS_2014.nc
HEMCO: Opening /fsx/HEMCO/CEDS/v2018-08/2014/BENZ-em-anthro_CMIP_CEDS_2014.nc
HEMCO: Opening /fsx/HEMCO/CEDS/v2018-08/2014/TOLU-em-anthro_CMIP_CEDS_2014.nc
HEMCO: Opening /fsx/HEMCO/CEDS/v2018-08/2014/XYLE-em-anthro_CMIP_CEDS_2014.nc
HEMCO: Opening /fsx/HEMCO/CEDS/v2018-08/2014/CH2O-em-anthro_CMIP_CEDS_2014.nc
HEMCO: Opening /fsx/HEMCO/CEDS/v2018-08/2014/ALD2-em-anthro_CMIP_CEDS_2014.nc
HEMCO: Opening /fsx/HEMCO/CEDS/v2018-08/2014/MEK-em-anthro_CMIP_CEDS_2014.nc
HEMCO: Opening /fsx/HEMCO/CEDS/v2018-08/2014/HCOOH-em-anthro_CMIP_CEDS_2014.nc
HEMCO: Opening /fsx/HEMCO/CEDS/v2018-08/2014/NO-em-anthro_CMIP_CEDS_2014.nc
HEMCO: Opening /fsx/HEMCO/AEIC/v2015-01/AEIC.47L.gen.1x1.nc
HEMCO: Opening /fsx/HEMCO/ALD2/v2017-03/resp.geos.2x25.nc
HEMCO: Opening /fsx/HEMCO/DMS/v2015-07/DMS_lana.geos.1x1.nc
HEMCO: Opening /fsx/HEMCO/ALD2/v2017-03/ALD2_seawater.geos.2x25.nc
HEMCO: Opening /fsx/HEMCO/DUST_DEAD/v2014-07/dst_tvbds.geos.4x5.nc
HEMCO: Opening /fsx/HEMCO/DUST_DEAD/v2018-04/PM25FINE_ECLIPSE_2015.geos.2x25.nc
HEMCO: Opening /fsx/HEMCO/SOA/v2014-07/NVOC.geos.1x1.nc
HEMCO: Opening /fsx/HEMCO/GFED4/v2015-10/2016/GFED4_gen.025x025.201601.nc
HEMCO: Opening /fsx/HEMCO/UVALBEDO/v2015-03/uvalbedo.geos.2x25.nc
HEMCO: Opening /fsx/HEMCO/GMI/v2015-02/gmi.clim.ACET.geos5.2x25.nc
HEMCO: Opening /fsx/HEMCO/GMI/v2015-02/gmi.clim.ACTA.geos5.2x25.nc
HEMCO: Opening /fsx/HEMCO/GMI/v2015-02/gmi.clim.ALD2.geos5.2x25.nc
HEMCO: Opening /fsx/HEMCO/GMI/v2015-02/gmi.clim.ALK4.geos5.2x25.nc
HEMCO: Opening /fsx/HEMCO/GMI/v2015-02/gmi.clim.C2H6.geos5.2x25.nc
HEMCO: Opening /fsx/HEMCO/GMI/v2015-02/gmi.clim.C3H8.geos5.2x25.nc
HEMCO: Opening /fsx/HEMCO/GMI/v2015-02/gmi.clim.CCl4.geos5.2x25.nc
HEMCO: Opening /fsx/HEMCO/GMI/v2015-02/gmi.clim.CF2Cl2.geos5.2x25.nc
HEMCO: Opening /fsx/HEMCO/GMI/v2015-02/gmi.clim.CF2ClBr.geos5.2x25.nc
HEMCO: Opening /fsx/HEMCO/GMI/v2015-02/gmi.clim.CFC113.geos5.2x25.nc
HEMCO: Opening /fsx/HEMCO/GMI/v2015-02/gmi.clim.CFC114.geos5.2x25.nc
HEMCO: Opening /fsx/HEMCO/GMI/v2015-02/gmi.clim.CFC115.geos5.2x25.nc
HEMCO: Opening /fsx/HEMCO/GMI/v2015-02/gmi.clim.CFCl3.geos5.2x25.nc
HEMCO: Opening /fsx/HEMCO/GMI/v2015-02/gmi.clim.CH2O.geos5.2x25.nc
HEMCO: Opening /fsx/HEMCO/GMI/v2015-02/gmi.clim.CH3CCl3.geos5.2x25.nc
HEMCO: Opening /fsx/HEMCO/GMI/v2015-02/gmi.clim.CH3Cl.geos5.2x25.nc
HEMCO: Opening /fsx/HEMCO/GMI/v2015-02/gmi.clim.CH4.geos5.2x25.nc
HEMCO: Opening /fsx/HEMCO/GMI/v2015-02/gmi.clim.CO.geos5.2x25.nc
HEMCO: Opening /fsx/HEMCO/GMI/v2015-02/gmi.clim.Cl.geos5.2x25.nc
HEMCO: Opening /fsx/HEMCO/GMI/v2015-02/gmi.clim.Cl2.geos5.2x25.nc
HEMCO: Opening /fsx/HEMCO/GMI/v2015-02/gmi.clim.Cl2O2.geos5.2x25.nc
HEMCO: Opening /fsx/HEMCO/GMI/v2015-02/gmi.clim.ClO.geos5.2x25.nc
HEMCO: Opening /fsx/HEMCO/GMI/v2015-02/gmi.clim.EOH.geos5.2x25.nc
HEMCO: Opening /fsx/HEMCO/GMI/v2015-02/gmi.clim.GLYC.geos5.2x25.nc
HEMCO: Opening /fsx/HEMCO/GMI/v2015-02/gmi.clim.GLYX.geos5.2x25.nc
HEMCO: Opening /fsx/HEMCO/GMI/v2015-02/gmi.clim.H2402.geos5.2x25.nc
HEMCO: Opening /fsx/HEMCO/GMI/v2015-02/gmi.clim.H2O.geos5.2x25.nc
HEMCO: Opening /fsx/HEMCO/GMI/v2015-02/gmi.clim.H2O2.geos5.2x25.nc
HEMCO: Opening /fsx/HEMCO/GMI/v2015-02/gmi.clim.HAC.geos5.2x25.nc
HEMCO: Opening /fsx/HEMCO/GMI/v2015-02/gmi.clim.HCFC141b.geos5.2x25.nc
HEMCO: Opening /fsx/HEMCO/GMI/v2015-02/gmi.clim.HCFC142b.geos5.2x25.nc
HEMCO: Opening /fsx/HEMCO/GMI/v2015-02/gmi.clim.HCFC22.geos5.2x25.nc
HEMCO: Opening /fsx/HEMCO/GMI/v2015-02/gmi.clim.HCOOH.geos5.2x25.20170108.nc
HEMCO: Opening /fsx/HEMCO/GMI/v2015-02/gmi.clim.HCl.geos5.2x25.nc
HEMCO: Opening /fsx/HEMCO/GMI/v2015-02/gmi.clim.HNO2.geos5.2x25.nc
HEMCO: Opening /fsx/HEMCO/GMI/v2015-02/gmi.clim.HNO3.geos5.2x25.nc
HEMCO: Opening /fsx/HEMCO/GMI/v2015-02/gmi.clim.HNO4.geos5.2x25.nc
HEMCO: Opening /fsx/HEMCO/GMI/v2015-02/gmi.clim.HOCl.geos5.2x25.nc
HEMCO: Opening /fsx/HEMCO/GMI/v2015-02/gmi.clim.ISN1.geos5.2x25.nc
HEMCO: Opening /fsx/HEMCO/GMI/v2015-02/gmi.clim.ISOP.geos5.2x25.nc
HEMCO: Opening /fsx/HEMCO/GMI/v2015-02/gmi.clim.MACR.geos5.2x25.nc
HEMCO: Opening /fsx/HEMCO/GMI/v2015-02/gmi.clim.MAP.geos5.2x25.nc
HEMCO: Opening /fsx/HEMCO/GMI/v2015-02/gmi.clim.MEK.geos5.2x25.nc
HEMCO: Opening /fsx/HEMCO/GMI/v2015-02/gmi.clim.MGLY.geos5.2x25.nc
HEMCO: Opening /fsx/HEMCO/GMI/v2015-02/gmi.clim.MP.geos5.2x25.nc
HEMCO: Opening /fsx/HEMCO/GMI/v2015-02/gmi.clim.MVK.geos5.2x25.nc
HEMCO: Opening /fsx/HEMCO/GMI/v2015-02/gmi.clim.N2O.geos5.2x25.nc
HEMCO: Opening /fsx/HEMCO/GMI/v2015-02/gmi.clim.N2O5.geos5.2x25.nc
HEMCO: Opening /fsx/HEMCO/GMI/v2015-02/gmi.clim.NO.geos5.2x25.nc
HEMCO: Opening /fsx/HEMCO/GMI/v2015-02/gmi.clim.NO2.geos5.2x25.nc
HEMCO: Opening /fsx/HEMCO/GMI/v2015-02/gmi.clim.NO3.geos5.2x25.nc
HEMCO: Opening /fsx/HEMCO/GMI/v2015-02/gmi.clim.O3.geos5.2x25.nc
HEMCO: Opening /fsx/HEMCO/GMI/v2015-02/gmi.clim.OClO.geos5.2x25.nc
HEMCO: Opening /fsx/HEMCO/GMI/v2015-02/gmi.clim.PAN.geos5.2x25.nc
HEMCO: Opening /fsx/HEMCO/GMI/v2015-02/gmi.clim.NPMN.geos5.2x25.nc
HEMCO: Opening /fsx/HEMCO/GMI/v2015-02/gmi.clim.IPMN.geos5.2x25.nc
HEMCO: Opening /fsx/HEMCO/GMI/v2015-02/gmi.clim.PPN.geos5.2x25.nc
HEMCO: Opening /fsx/HEMCO/GMI/v2015-02/gmi.clim.PRPE.geos5.2x25.nc
HEMCO: Opening /fsx/HEMCO/GMI/v2015-02/gmi.clim.R4N2.geos5.2x25.nc
HEMCO: Opening /fsx/HEMCO/GMI/v2015-02/gmi.clim.RCHO.geos5.2x25.nc
HEMCO: Opening /fsx/HEMCO/GMI/v2015-02/gmi.clim.RIPA.geos5.2x25.nc
HEMCO: Opening /fsx/HEMCO/GMI/v2015-02/gmi.clim.RIPB.geos5.2x25.nc
HEMCO: Opening /fsx/HEMCO/GMI/v2015-02/gmi.clim.RIPD.geos5.2x25.nc
HEMCO: Opening /fsx/HEMCO/GMI/v2015-02/gmi.clim.OH.geos5.2x25.nc
HEMCO: Opening /fsx/HEMCO/NOAA_GMD/v2018-01/monthly.gridded.surface.methane.1979-2020.1x1.nc
HEMCO: Opening /fsx/HEMCO/GEIA/v2014-07/GEIA_monthscal.generic.1x1.nc
HEMCO: Opening /fsx/HEMCO/EMEP/v2015-03/EMEP.Seasonal.geos.1x1.nc
HEMCO: Opening /fsx/HEMCO/BROMINE/v2015-02/BromoCarb_Season.nc
HEMCO: Opening /fsx/HEMCO/EDGARv43/v2016-11/EDGAR_v43.Seasonal.1x1.nc
HEMCO: Opening /fsx/HEMCO/NEI2005/v2014-09/scaling/NEI99.dow.geos.1x1.nc
HEMCO: Opening /fsx/HEMCO/VOLCANO/v2015-02/2009/volc_so2_gen.1x1.47L.200901.nc
HEMCO: Opening /fsx/HEMCO/SOILNOX/v2014-07/soilNOx.fert_res.generic.05x05.nc
 vdinti: pbl height will be limited to bottom           25  model levels. top is
     431.250100000000       hpa
 =================================================
 W R F - G C   T I M E R S
    Domain           1 (Units: s)
 =================================================
  => Coupler Component                       0.052
   -- Physics & Parameterization             0.011
   -- Diagnostics Out                        0.000
  => GEOS-Chem Column                      150.785
  ===> Total Chemistry                     150.837
  => WRF                                    17.351
  ===> Total WRF-GC                        168.187
 max optd  1.7527504E+35
 max taucldi  2.8981836E-07
 max taucldw  1.2754596E-05
 Switching is not necessary as we are already
 in the right domain!
 GIGC_Chunk_Run: Running for in-PET grid #           1
 GIGC_Chunk_Run: Received new grid IM, JM, LM =          15           9
          49
 =================================================
 W R F - G C   T I M E R S
    Domain           1 (Units: s)
 =================================================
  => Coupler Component                       0.077
   -- Physics & Parameterization             0.020
   -- Diagnostics Out                        0.000
  => GEOS-Chem Column                      153.311
  ===> Total Chemistry                     153.388
  => WRF                                    40.164
  ===> Total WRF-GC                        193.552
 max optd  1.7527504E+35
 max taucldi  5.9251067E-07
 max taucldw  2.4057565E-05
 Switching is not necessary as we are already
 in the right domain!
 GIGC_Chunk_Run: Running for in-PET grid #           1
 GIGC_Chunk_Run: Received new grid IM, JM, LM =          15           9
          49
 =================================================
 W R F - G C   T I M E R S
    Domain           1 (Units: s)
 =================================================
  => Coupler Component                       0.102
   -- Physics & Parameterization             0.030
   -- Diagnostics Out                        0.000
  => GEOS-Chem Column                      154.843
  ===> Total Chemistry                     154.945
  => WRF                                    59.497
  ===> Total WRF-GC                        214.442
 max optd  1.7527504E+35
 max taucldi  8.5568763E-07
 max taucldw  3.3484179E-05
 Switching is not necessary as we are already
 in the right domain!
 GIGC_Chunk_Run: Running for in-PET grid #           1
 GIGC_Chunk_Run: Received new grid IM, JM, LM =          15           9
          49
 =================================================
 W R F - G C   T I M E R S
    Domain           1 (Units: s)
 =================================================
  => Coupler Component                       0.137
   -- Physics & Parameterization             0.039
   -- Diagnostics Out                        0.000
  => GEOS-Chem Column                      156.152
  ===> Total Chemistry                     156.289
  => WRF                                    78.069
  ===> Total WRF-GC                        234.358
 max optd  1.7527504E+35
 max taucldi  1.0607674E-06
 max taucldw  4.1878538E-05
 Switching is not necessary as we are already
 in the right domain!
 GIGC_Chunk_Run: Running for in-PET grid #           1
 GIGC_Chunk_Run: Received new grid IM, JM, LM =          15           9
          49
 =================================================
 W R F - G C   T I M E R S
    Domain           1 (Units: s)
 =================================================
  => Coupler Component                       0.168
   -- Physics & Parameterization             0.049
   -- Diagnostics Out                        0.000
  => GEOS-Chem Column                      157.410
  ===> Total Chemistry                     157.578
  => WRF                                    96.382
  ===> Total WRF-GC                        253.960
 max optd  1.7527504E+35
 max taucldi  1.2983988E-06
 max taucldw  4.8306621E-05
 Switching is not necessary as we are already
 in the right domain!
 GIGC_Chunk_Run: Running for in-PET grid #           1
 GIGC_Chunk_Run: Received new grid IM, JM, LM =          15           9
          49
 =================================================
 W R F - G C   T I M E R S
    Domain           1 (Units: s)
 =================================================
  => Coupler Component                       0.200
   -- Physics & Parameterization             0.058
   -- Diagnostics Out                        0.000
  => GEOS-Chem Column                      158.615
  ===> Total Chemistry                     158.815
  => WRF                                   114.633
  ===> Total WRF-GC                        273.448
 max optd  1.7527504E+35
 max taucldi  8.2773782E-02
 max taucldw  5.5256129E-05
 Switching is not necessary as we are already
 in the right domain!
 GIGC_Chunk_Run: Running for in-PET grid #           1
 GIGC_Chunk_Run: Received new grid IM, JM, LM =          15           9
          49
 =================================================
 W R F - G C   T I M E R S
    Domain           1 (Units: s)
 =================================================
  => Coupler Component                       0.233
   -- Physics & Parameterization             0.067
   -- Diagnostics Out                        0.000
  => GEOS-Chem Column                      159.828
  ===> Total Chemistry                     160.061
  => WRF                                   132.932
  ===> Total WRF-GC                        292.992
 max optd  1.7527504E+35
 max taucldi  0.1271708    
 max taucldw  5.9764992E-05
 Switching is not necessary as we are already
 in the right domain!
 GIGC_Chunk_Run: Running for in-PET grid #           1
 GIGC_Chunk_Run: Received new grid IM, JM, LM =          15           9
          49
 =================================================
 W R F - G C   T I M E R S
    Domain           1 (Units: s)
 =================================================
  => Coupler Component                       0.270
   -- Physics & Parameterization             0.077
   -- Diagnostics Out                        0.000
  => GEOS-Chem Column                      161.015
  ===> Total Chemistry                     161.285
  => WRF                                   151.150
  ===> Total WRF-GC                        312.435
 max optd  1.7527504E+35
 max taucldi  0.1498569    
 max taucldw  6.2234962E-05
 Switching is not necessary as we are already
 in the right domain!
 GIGC_Chunk_Run: Running for in-PET grid #           1
 GIGC_Chunk_Run: Received new grid IM, JM, LM =          15           9
          49
 =================================================
 W R F - G C   T I M E R S
    Domain           1 (Units: s)
 =================================================
  => Coupler Component                       0.301
   -- Physics & Parameterization             0.087
   -- Diagnostics Out                        0.000
  => GEOS-Chem Column                      162.196
  ===> Total Chemistry                     162.497
  => WRF                                   169.389
  ===> Total WRF-GC                        331.887
 max optd  1.7527504E+35
 max taucldi  0.1475458    
 max taucldw  6.4406420E-05
 Switching is not necessary as we are already
 in the right domain!
 GIGC_Chunk_Run: Running for in-PET grid #           1
 GIGC_Chunk_Run: Received new grid IM, JM, LM =          15           9
          49
 =================================================
 W R F - G C   T I M E R S
    Domain           1 (Units: s)
 =================================================
  => Coupler Component                       0.337
   -- Physics & Parameterization             0.096
   -- Diagnostics Out                        0.000
  => GEOS-Chem Column                      163.389
  ===> Total Chemistry                     163.726
  => WRF                                   187.695
  ===> Total WRF-GC                        351.421
 max optd  1.7527504E+35
 max taucldi  0.1549315    
 max taucldw  6.3013780E-05
 Switching is not necessary as we are already
 in the right domain!
 GIGC_Chunk_Run: Running for in-PET grid #           1
 GIGC_Chunk_Run: Received new grid IM, JM, LM =          15           9
          49
 =================================================
 W R F - G C   T I M E R S
    Domain           1 (Units: s)
 =================================================
  => Coupler Component                       0.369
   -- Physics & Parameterization             0.106
   -- Diagnostics Out                        0.000
  => GEOS-Chem Column                      164.575
  ===> Total Chemistry                     164.944
  => WRF                                   205.922
  ===> Total WRF-GC                        370.866
 max optd  1.7527504E+35
 max taucldi  0.1355344    
 max taucldw  5.9174148E-05
 Switching is not necessary as we are already
 in the right domain!
 GIGC_Chunk_Run: Running for in-PET grid #           1
 GIGC_Chunk_Run: Received new grid IM, JM, LM =          15           9
          49
 =================================================
 W R F - G C   T I M E R S
    Domain           1 (Units: s)
 =================================================
  => Coupler Component                       0.401
   -- Physics & Parameterization             0.115
   -- Diagnostics Out                        0.000
  => GEOS-Chem Column                      165.745
  ===> Total Chemistry                     166.146
  => WRF                                   224.031
  ===> Total WRF-GC                        390.177
 HOURLY EMISSIONS UPDATE TIME     3600.0       0.0
mediation_integrate: med_read_wrf_chem_emissions: Read emissions for time 2018-01-01_01:00:00
 max optd  1.7527504E+35
 max taucldi  0.1333405    
 max taucldw  5.4676893E-05
 Switching is not necessary as we are already
 in the right domain!
 GIGC_Chunk_Run: Running for in-PET grid #           1
 GIGC_Chunk_Run: Received new grid IM, JM, LM =          15           9
          49
 =================================================
 W R F - G C   T I M E R S
    Domain           1 (Units: s)
 =================================================
  => Coupler Component                       0.431
   -- Physics & Parameterization             0.124
   -- Diagnostics Out                        0.000
  => GEOS-Chem Column                      166.921
  ===> Total Chemistry                     167.353
  => WRF                                   242.233
  ===> Total WRF-GC                        409.586
 max optd  1.7527504E+35
 max taucldi  0.1495136    
 max taucldw  5.1099782E-05
 Switching is not necessary as we are already
 in the right domain!
 GIGC_Chunk_Run: Running for in-PET grid #           1
 GIGC_Chunk_Run: Received new grid IM, JM, LM =          15           9
          49
 =================================================
 W R F - G C   T I M E R S
    Domain           1 (Units: s)
 =================================================
  => Coupler Component                       0.460
   -- Physics & Parameterization             0.134
   -- Diagnostics Out                        0.000
  => GEOS-Chem Column                      168.101
  ===> Total Chemistry                     168.561
  => WRF                                   260.428
  ===> Total WRF-GC                        428.989
 max optd  1.7527504E+35
 max taucldi  0.1687359    
 max taucldw  4.9297178E-05
 Switching is not necessary as we are already
 in the right domain!
 GIGC_Chunk_Run: Running for in-PET grid #           1
 GIGC_Chunk_Run: Received new grid IM, JM, LM =          15           9
          49
 =================================================
 W R F - G C   T I M E R S
    Domain           1 (Units: s)
 =================================================
  => Coupler Component                       0.491
   -- Physics & Parameterization             0.143
   -- Diagnostics Out                        0.000
  => GEOS-Chem Column                      169.279
  ===> Total Chemistry                     169.770
  => WRF                                   278.505
  ===> Total WRF-GC                        448.275
 max optd  1.7527504E+35
 max taucldi  0.1723372    
 max taucldw  5.2122388E-05
 Switching is not necessary as we are already
 in the right domain!
 GIGC_Chunk_Run: Running for in-PET grid #           1
 GIGC_Chunk_Run: Received new grid IM, JM, LM =          15           9
          49
 =================================================
 W R F - G C   T I M E R S
    Domain           1 (Units: s)
 =================================================
  => Coupler Component                       0.533
   -- Physics & Parameterization             0.153
   -- Diagnostics Out                        0.000
  => GEOS-Chem Column                      170.362
  ===> Total Chemistry                     170.895
  => WRF                                   296.657
  ===> Total WRF-GC                        467.553
 max optd  1.7527504E+35
 max taucldi  0.1585785    
 max taucldw  5.5260844E-05
 Switching is not necessary as we are already
 in the right domain!
 GIGC_Chunk_Run: Running for in-PET grid #           1
 GIGC_Chunk_Run: Received new grid IM, JM, LM =          15           9
          49
 =================================================
 W R F - G C   T I M E R S
    Domain           1 (Units: s)
 =================================================
  => Coupler Component                       0.568
   -- Physics & Parameterization             0.162
   -- Diagnostics Out                        0.000
  => GEOS-Chem Column                      171.438
  ===> Total Chemistry                     172.006
  => WRF                                   314.851
  ===> Total WRF-GC                        486.857
 max optd  1.7527504E+35
 max taucldi  0.1273660    
 max taucldw  5.8579364E-05
 Switching is not necessary as we are already
 in the right domain!
 GIGC_Chunk_Run: Running for in-PET grid #           1
 GIGC_Chunk_Run: Received new grid IM, JM, LM =          15           9
          49
 =================================================
 W R F - G C   T I M E R S
    Domain           1 (Units: s)
 =================================================
  => Coupler Component                       0.604
   -- Physics & Parameterization             0.172
   -- Diagnostics Out                        0.000
  => GEOS-Chem Column                      172.519
  ===> Total Chemistry                     173.123
  => WRF                                   333.026
  ===> Total WRF-GC                        506.148
 max optd  1.7527504E+35
 max taucldi  0.1637502    
 max taucldw  6.1406172E-05
 Switching is not necessary as we are already
 in the right domain!
 GIGC_Chunk_Run: Running for in-PET grid #           1
 GIGC_Chunk_Run: Received new grid IM, JM, LM =          15           9
          49
 =================================================
 W R F - G C   T I M E R S
    Domain           1 (Units: s)
 =================================================
  => Coupler Component                       0.643
   -- Physics & Parameterization             0.181
   -- Diagnostics Out                        0.000
  => GEOS-Chem Column                      173.594
  ===> Total Chemistry                     174.237
  => WRF                                   351.249
  ===> Total WRF-GC                        525.486
 max optd  1.7527504E+35
 max taucldi  0.1562035    
 max taucldw  6.2865773E-05
 Switching is not necessary as we are already
 in the right domain!
 GIGC_Chunk_Run: Running for in-PET grid #           1
 GIGC_Chunk_Run: Received new grid IM, JM, LM =          15           9
          49
 =================================================
 W R F - G C   T I M E R S
    Domain           1 (Units: s)
 =================================================
  => Coupler Component                       0.679
   -- Physics & Parameterization             0.191
   -- Diagnostics Out                        0.000
  => GEOS-Chem Column                      174.666
  ===> Total Chemistry                     175.346
  => WRF                                   369.585
  ===> Total WRF-GC                        544.931
 max optd  1.7527504E+35
 max taucldi  0.1753432    
 max taucldw  6.4691259E-05
 Switching is not necessary as we are already
 in the right domain!
 GIGC_Chunk_Run: Running for in-PET grid #           1
 GIGC_Chunk_Run: Received new grid IM, JM, LM =          15           9
          49
 =================================================
 W R F - G C   T I M E R S
    Domain           1 (Units: s)
 =================================================
  => Coupler Component                       0.719
   -- Physics & Parameterization             0.200
   -- Diagnostics Out                        0.000
  => GEOS-Chem Column                      175.745
  ===> Total Chemistry                     176.464
  => WRF                                   387.661
  ===> Total WRF-GC                        564.125
 max optd  1.7527504E+35
 max taucldi  0.1805783    
 max taucldw  6.8182067E-05
 Switching is not necessary as we are already
 in the right domain!
 GIGC_Chunk_Run: Running for in-PET grid #           1
 GIGC_Chunk_Run: Received new grid IM, JM, LM =          15           9
          49
 =================================================
 W R F - G C   T I M E R S
    Domain           1 (Units: s)
 =================================================
  => Coupler Component                       0.756
   -- Physics & Parameterization             0.210
   -- Diagnostics Out                        0.000
  => GEOS-Chem Column                      176.817
  ===> Total Chemistry                     177.573
  => WRF                                   405.815
  ===> Total WRF-GC                        583.388
 max optd  1.7527504E+35
 max taucldi  0.1836367    
 max taucldw  6.9396534E-05
 Switching is not necessary as we are already
 in the right domain!
 GIGC_Chunk_Run: Running for in-PET grid #           1
 GIGC_Chunk_Run: Received new grid IM, JM, LM =          15           9
          49
 =================================================
 W R F - G C   T I M E R S
    Domain           1 (Units: s)
 =================================================
  => Coupler Component                       0.796
   -- Physics & Parameterization             0.220
   -- Diagnostics Out                        0.000
  => GEOS-Chem Column                      177.887
  ===> Total Chemistry                     178.683
  => WRF                                   424.084
  ===> Total WRF-GC                        602.767
 max optd  1.7527504E+35
 max taucldi  0.2148855    
 max taucldw  6.7677523E-05
 Switching is not necessary as we are already
 in the right domain!
 GIGC_Chunk_Run: Running for in-PET grid #           1
 GIGC_Chunk_Run: Received new grid IM, JM, LM =          15           9
          49
 =================================================
 W R F - G C   T I M E R S
    Domain           1 (Units: s)
 =================================================
  => Coupler Component                       0.832
   -- Physics & Parameterization             0.229
   -- Diagnostics Out                        0.000
  => GEOS-Chem Column                      178.959
  ===> Total Chemistry                     179.791
  => WRF                                   442.242
  ===> Total WRF-GC                        622.033
 HOURLY EMISSIONS UPDATE TIME     7200.0       0.0
mediation_integrate: med_read_wrf_chem_emissions: Read emissions for time 2018-01-01_02:00:00
 max optd  1.7527504E+35
 max taucldi  0.2607033    
 max taucldw  6.3533975E-05
 Switching is not necessary as we are already
 in the right domain!
 GIGC_Chunk_Run: Running for in-PET grid #           1
 GIGC_Chunk_Run: Received new grid IM, JM, LM =          15           9
          49
 =================================================
 W R F - G C   T I M E R S
    Domain           1 (Units: s)
 =================================================
  => Coupler Component                       0.872
   -- Physics & Parameterization             0.238
   -- Diagnostics Out                        0.000
  => GEOS-Chem Column                      180.026
  ===> Total Chemistry                     180.898
  => WRF                                   460.433
  ===> Total WRF-GC                        641.331
 max optd  1.7527504E+35
 max taucldi  0.2846082    
 max taucldw  6.0260110E-05
 Switching is not necessary as we are already
 in the right domain!
 GIGC_Chunk_Run: Running for in-PET grid #           1
 GIGC_Chunk_Run: Received new grid IM, JM, LM =          15           9
          49
 =================================================
 W R F - G C   T I M E R S
    Domain           1 (Units: s)
 =================================================
  => Coupler Component                       0.910
   -- Physics & Parameterization             0.248
   -- Diagnostics Out                        0.000
  => GEOS-Chem Column                      181.098
  ===> Total Chemistry                     182.008
  => WRF                                   478.634
  ===> Total WRF-GC                        660.642
 max optd  1.7527504E+35
 max taucldi  0.2913964    
 max taucldw  5.8107737E-05
 Switching is not necessary as we are already
 in the right domain!
 GIGC_Chunk_Run: Running for in-PET grid #           1
 GIGC_Chunk_Run: Received new grid IM, JM, LM =          15           9
          49
 =================================================
 W R F - G C   T I M E R S
    Domain           1 (Units: s)
 =================================================
  => Coupler Component                       0.962
   -- Physics & Parameterization             0.258
   -- Diagnostics Out                        0.000
  => GEOS-Chem Column                      182.128
  ===> Total Chemistry                     183.090
  => WRF                                   496.712
  ===> Total WRF-GC                        679.802
 max optd  1.7527504E+35
 max taucldi  0.2934928    
 max taucldw  5.7113317E-05
 Switching is not necessary as we are already
 in the right domain!
 GIGC_Chunk_Run: Running for in-PET grid #           1
 GIGC_Chunk_Run: Received new grid IM, JM, LM =          15           9
          49
 =================================================
 W R F - G C   T I M E R S
    Domain           1 (Units: s)
 =================================================
  => Coupler Component                       1.004
   -- Physics & Parameterization             0.268
   -- Diagnostics Out                        0.000
  => GEOS-Chem Column                      183.209
  ===> Total Chemistry                     184.213
  => WRF                                   514.850
  ===> Total WRF-GC                        699.063
 max optd  1.7527504E+35
 max taucldi  0.2898669    
 max taucldw  5.8110421E-05
 Switching is not necessary as we are already
 in the right domain!
 GIGC_Chunk_Run: Running for in-PET grid #           1
 GIGC_Chunk_Run: Received new grid IM, JM, LM =          15           9
          49
 =================================================
 W R F - G C   T I M E R S
    Domain           1 (Units: s)
 =================================================
  => Coupler Component                       1.043
   -- Physics & Parameterization             0.277
   -- Diagnostics Out                        0.000
  => GEOS-Chem Column                      184.284
  ===> Total Chemistry                     185.327
  => WRF                                   532.959
  ===> Total WRF-GC                        718.286
 max optd  1.7527504E+35
 max taucldi  0.3150045    
 max taucldw  2.5254881E-02
 Switching is not necessary as we are already
 in the right domain!
 GIGC_Chunk_Run: Running for in-PET grid #           1
 GIGC_Chunk_Run: Received new grid IM, JM, LM =          15           9
          49
 =================================================
 W R F - G C   T I M E R S
    Domain           1 (Units: s)
 =================================================
  => Coupler Component                       1.080
   -- Physics & Parameterization             0.287
   -- Diagnostics Out                        0.000
  => GEOS-Chem Column                      185.358
  ===> Total Chemistry                     186.438
  => WRF                                   551.070
  ===> Total WRF-GC                        737.508
 max optd  1.7527504E+35
 max taucldi  0.3265808    
 max taucldw  0.1567318    
 Switching is not necessary as we are already
 in the right domain!
 GIGC_Chunk_Run: Running for in-PET grid #           1
 GIGC_Chunk_Run: Received new grid IM, JM, LM =          15           9
          49
 =================================================
 W R F - G C   T I M E R S
    Domain           1 (Units: s)
 =================================================
  => Coupler Component                       1.122
   -- Physics & Parameterization             0.296
   -- Diagnostics Out                        0.000
  => GEOS-Chem Column                      186.431
  ===> Total Chemistry                     187.553
  => WRF                                   569.194
  ===> Total WRF-GC                        756.746
 max optd  1.7527504E+35
 max taucldi  0.3362820    
 max taucldw  0.3919001    
 Switching is not necessary as we are already
 in the right domain!
 GIGC_Chunk_Run: Running for in-PET grid #           1
 GIGC_Chunk_Run: Received new grid IM, JM, LM =          15           9
          49
 =================================================
 W R F - G C   T I M E R S
    Domain           1 (Units: s)
 =================================================
  => Coupler Component                       1.157
   -- Physics & Parameterization             0.306
   -- Diagnostics Out                        0.000
  => GEOS-Chem Column                      187.507
  ===> Total Chemistry                     188.664
  => WRF                                   587.252
  ===> Total WRF-GC                        775.916
 max optd  1.7527504E+35
 max taucldi  0.3463525    
 max taucldw  0.5737126    
 Switching is not necessary as we are already
 in the right domain!
 GIGC_Chunk_Run: Running for in-PET grid #           1
 GIGC_Chunk_Run: Received new grid IM, JM, LM =          15           9
          49
 =================================================
 W R F - G C   T I M E R S
    Domain           1 (Units: s)
 =================================================
  => Coupler Component                       1.201
   -- Physics & Parameterization             0.315
   -- Diagnostics Out                        0.000
  => GEOS-Chem Column                      188.572
  ===> Total Chemistry                     189.773
  => WRF                                   605.332
  ===> Total WRF-GC                        795.104
 max optd  1.7527504E+35
 max taucldi  0.3398715    
 max taucldw  0.7975184    
 Switching is not necessary as we are already
 in the right domain!
 GIGC_Chunk_Run: Running for in-PET grid #           1
 GIGC_Chunk_Run: Received new grid IM, JM, LM =          15           9
          49
 =================================================
 W R F - G C   T I M E R S
    Domain           1 (Units: s)
 =================================================
  => Coupler Component                       1.242
   -- Physics & Parameterization             0.325
   -- Diagnostics Out                        0.000
  => GEOS-Chem Column                      189.649
  ===> Total Chemistry                     190.890
  => WRF                                   623.457
  ===> Total WRF-GC                        814.347
 max optd  1.7527504E+35
 max taucldi  0.3219045    
 max taucldw  0.8907477    
 Switching is not necessary as we are already
 in the right domain!
 GIGC_Chunk_Run: Running for in-PET grid #           1
 GIGC_Chunk_Run: Received new grid IM, JM, LM =          15           9
          49
 =================================================
 W R F - G C   T I M E R S
    Domain           1 (Units: s)
 =================================================
  => Coupler Component                       1.283
   -- Physics & Parameterization             0.334
   -- Diagnostics Out                        0.000
  => GEOS-Chem Column                      190.722
  ===> Total Chemistry                     192.005
  => WRF                                   641.491
  ===> Total WRF-GC                        833.496
 max optd  1.7527504E+35
 max taucldi  0.3165609    
 max taucldw  0.8900184    
 Switching is not necessary as we are already
 in the right domain!
 GIGC_Chunk_Run: Running for in-PET grid #           1
 GIGC_Chunk_Run: Received new grid IM, JM, LM =          15           9
          49
 =================================================
 W R F - G C   T I M E R S
    Domain           1 (Units: s)
 =================================================
  => Coupler Component                       1.319
   -- Physics & Parameterization             0.344
   -- Diagnostics Out                        0.000
  => GEOS-Chem Column                      191.799
  ===> Total Chemistry                     193.118
  => WRF                                   659.549
  ===> Total WRF-GC                        852.667
 HOURLY EMISSIONS UPDATE TIME    10800.0       0.0
mediation_integrate: med_read_wrf_chem_emissions: Read emissions for time 2018-01-01_03:00:00
 max optd  1.7527504E+35
 max taucldi  0.3110574    
 max taucldw  0.9216498    
 Switching is not necessary as we are already
 in the right domain!
 GIGC_Chunk_Run: Running for in-PET grid #           1
 GIGC_Chunk_Run: Received new grid IM, JM, LM =          15           9
          49
 =================================================
 W R F - G C   T I M E R S
    Domain           1 (Units: s)
 =================================================
  => Coupler Component                       1.355
   -- Physics & Parameterization             0.354
   -- Diagnostics Out                        0.000
  => GEOS-Chem Column                      192.881
  ===> Total Chemistry                     194.236
  => WRF                                   677.655
  ===> Total WRF-GC                        871.891
 max optd  1.7527504E+35
 max taucldi  0.2984194    
 max taucldw  0.9394066    
 Switching is not necessary as we are already
 in the right domain!
 GIGC_Chunk_Run: Running for in-PET grid #           1
 GIGC_Chunk_Run: Received new grid IM, JM, LM =          15           9
          49
 =================================================
 W R F - G C   T I M E R S
    Domain           1 (Units: s)
 =================================================
  => Coupler Component                       1.390
   -- Physics & Parameterization             0.363
   -- Diagnostics Out                        0.000
  => GEOS-Chem Column                      193.963
  ===> Total Chemistry                     195.353
  => WRF                                   695.716
  ===> Total WRF-GC                        891.069
 max optd  1.7527504E+35
 max taucldi  0.2808042    
 max taucldw  0.9193699    
 Switching is not necessary as we are already
 in the right domain!
 GIGC_Chunk_Run: Running for in-PET grid #           1
 GIGC_Chunk_Run: Received new grid IM, JM, LM =          15           9
          49
 =================================================
 W R F - G C   T I M E R S
    Domain           1 (Units: s)
 =================================================
  => Coupler Component                       1.429
   -- Physics & Parameterization             0.373
   -- Diagnostics Out                        0.000
  => GEOS-Chem Column                      195.045
  ===> Total Chemistry                     196.473
  => WRF                                   713.792
  ===> Total WRF-GC                        910.265
 max optd  1.7527504E+35
 max taucldi  0.2570210    
 max taucldw  0.8226216    
 Switching is not necessary as we are already
 in the right domain!
 GIGC_Chunk_Run: Running for in-PET grid #           1
 GIGC_Chunk_Run: Received new grid IM, JM, LM =          15           9
          49
 =================================================
 W R F - G C   T I M E R S
    Domain           1 (Units: s)
 =================================================
  => Coupler Component                       1.468
   -- Physics & Parameterization             0.382
   -- Diagnostics Out                        0.000
  => GEOS-Chem Column                      196.133
  ===> Total Chemistry                     197.602
  => WRF                                   731.850
  ===> Total WRF-GC                        929.452
 max optd  1.7527504E+35
 max taucldi  0.2426269    
 max taucldw  0.6948736    
 Switching is not necessary as we are already
 in the right domain!
 GIGC_Chunk_Run: Running for in-PET grid #           1
 GIGC_Chunk_Run: Received new grid IM, JM, LM =          15           9
          49
 =================================================
 W R F - G C   T I M E R S
    Domain           1 (Units: s)
 =================================================
  => Coupler Component                       1.504
   -- Physics & Parameterization             0.392
   -- Diagnostics Out                        0.000
  => GEOS-Chem Column                      197.214
  ===> Total Chemistry                     198.718
  => WRF                                   749.882
  ===> Total WRF-GC                        948.600
 max optd  1.7527504E+35
 max taucldi  0.2402320    
 max taucldw  0.5635593    
 Switching is not necessary as we are already
 in the right domain!
 GIGC_Chunk_Run: Running for in-PET grid #           1
 GIGC_Chunk_Run: Received new grid IM, JM, LM =          15           9
          49
 =================================================
 W R F - G C   T I M E R S
    Domain           1 (Units: s)
 =================================================
  => Coupler Component                       1.545
   -- Physics & Parameterization             0.401
   -- Diagnostics Out                        0.000
  => GEOS-Chem Column                      198.310
  ===> Total Chemistry                     199.855
  => WRF                                   768.205
  ===> Total WRF-GC                        968.060
 max optd  1.7527504E+35
 max taucldi  0.2478259    
 max taucldw  0.4176384    
 Switching is not necessary as we are already
 in the right domain!
 GIGC_Chunk_Run: Running for in-PET grid #           1
 GIGC_Chunk_Run: Received new grid IM, JM, LM =          15           9
          49
 =================================================
 W R F - G C   T I M E R S
    Domain           1 (Units: s)
 =================================================
  => Coupler Component                       1.583
   -- Physics & Parameterization             0.411
   -- Diagnostics Out                        0.000
  => GEOS-Chem Column                      199.405
  ===> Total Chemistry                     200.988
  => WRF                                   786.329
  ===> Total WRF-GC                        987.318
 max optd  1.7527504E+35
 max taucldi  0.2579636    
 max taucldw  0.2702080    
 Switching is not necessary as we are already
 in the right domain!
 GIGC_Chunk_Run: Running for in-PET grid #           1
 GIGC_Chunk_Run: Received new grid IM, JM, LM =          15           9
          49
 =================================================
 W R F - G C   T I M E R S
    Domain           1 (Units: s)
 =================================================
  => Coupler Component                       1.624
   -- Physics & Parameterization             0.420
   -- Diagnostics Out                        0.000
  => GEOS-Chem Column                      200.503
  ===> Total Chemistry                     202.127
  => WRF                                   804.308
  ===> Total WRF-GC                       1006.435
 max optd  1.7527504E+35
 max taucldi  0.2635215    
 max taucldw  0.1301519    
 Switching is not necessary as we are already
 in the right domain!
 GIGC_Chunk_Run: Running for in-PET grid #           1
 GIGC_Chunk_Run: Received new grid IM, JM, LM =          15           9
          49
 =================================================
 W R F - G C   T I M E R S
    Domain           1 (Units: s)
 =================================================
  => Coupler Component                       1.662
   -- Physics & Parameterization             0.429
   -- Diagnostics Out                        0.000
  => GEOS-Chem Column                      201.594
  ===> Total Chemistry                     203.256
  => WRF                                   822.491
  ===> Total WRF-GC                       1025.747
 max optd  1.7527504E+35
 max taucldi  0.2691898    
 max taucldw  8.3662315E-05
 Switching is not necessary as we are already
 in the right domain!
 GIGC_Chunk_Run: Running for in-PET grid #           1
 GIGC_Chunk_Run: Received new grid IM, JM, LM =          15           9
          49
 =================================================
 W R F - G C   T I M E R S
    Domain           1 (Units: s)
 =================================================
  => Coupler Component                       1.700
   -- Physics & Parameterization             0.439
   -- Diagnostics Out                        0.000
  => GEOS-Chem Column                      202.673
  ===> Total Chemistry                     204.372
  => WRF                                   840.593
  ===> Total WRF-GC                       1044.965
 max optd  1.7527504E+35
 max taucldi  0.2703822    
 max taucldw  9.5576230E-05
 Switching is not necessary as we are already
 in the right domain!
 GIGC_Chunk_Run: Running for in-PET grid #           1
 GIGC_Chunk_Run: Received new grid IM, JM, LM =          15           9
          49
 =================================================
 W R F - G C   T I M E R S
    Domain           1 (Units: s)
 =================================================
  => Coupler Component                       1.737
   -- Physics & Parameterization             0.449
   -- Diagnostics Out                        0.000
  => GEOS-Chem Column                      203.756
  ===> Total Chemistry                     205.493
  => WRF                                   858.654
  ===> Total WRF-GC                       1064.147
 max optd  1.7527504E+35
 max taucldi  0.2709191    
 max taucldw  8.6303997E-05
 Switching is not necessary as we are already
 in the right domain!
 GIGC_Chunk_Run: Running for in-PET grid #           1
 GIGC_Chunk_Run: Received new grid IM, JM, LM =          15           9
          49
 =================================================
 W R F - G C   T I M E R S
    Domain           1 (Units: s)
 =================================================
  => Coupler Component                       1.773
   -- Physics & Parameterization             0.458
   -- Diagnostics Out                        0.000
  => GEOS-Chem Column                      204.843
  ===> Total Chemistry                     206.616
  => WRF                                   876.778
  ===> Total WRF-GC                       1083.394
 HOURLY EMISSIONS UPDATE TIME    14400.0       0.0
mediation_integrate: med_read_wrf_chem_emissions: Read emissions for time 2018-01-01_04:00:00
 max optd  1.7527504E+35
 max taucldi  0.2693546    
 max taucldw  9.5250653E-05
 Switching is not necessary as we are already
 in the right domain!
 GIGC_Chunk_Run: Running for in-PET grid #           1
 GIGC_Chunk_Run: Received new grid IM, JM, LM =          15           9
          49
 =================================================
 W R F - G C   T I M E R S
    Domain           1 (Units: s)
 =================================================
  => Coupler Component                       1.811
   -- Physics & Parameterization             0.468
   -- Diagnostics Out                        0.000
  => GEOS-Chem Column                      205.926
  ===> Total Chemistry                     207.737
  => WRF                                   894.878
  ===> Total WRF-GC                       1102.615
 max optd  1.7527504E+35
 max taucldi  0.2646816    
 max taucldw  9.7577613E-05
 Switching is not necessary as we are already
 in the right domain!
 GIGC_Chunk_Run: Running for in-PET grid #           1
 GIGC_Chunk_Run: Received new grid IM, JM, LM =          15           9
          49
 =================================================
 W R F - G C   T I M E R S
    Domain           1 (Units: s)
 =================================================
  => Coupler Component                       1.851
   -- Physics & Parameterization             0.477
   -- Diagnostics Out                        0.000
  => GEOS-Chem Column                      207.005
  ===> Total Chemistry                     208.857
  => WRF                                   912.987
  ===> Total WRF-GC                       1121.844
 max optd  1.7527504E+35
 max taucldi  0.2570900    
 max taucldw  8.5280015E-05
 Switching is not necessary as we are already
 in the right domain!
 GIGC_Chunk_Run: Running for in-PET grid #           1
 GIGC_Chunk_Run: Received new grid IM, JM, LM =          15           9
          49
 =================================================
 W R F - G C   T I M E R S
    Domain           1 (Units: s)
 =================================================
  => Coupler Component                       1.891
   -- Physics & Parameterization             0.487
   -- Diagnostics Out                        0.000
  => GEOS-Chem Column                      208.094
  ===> Total Chemistry                     209.985
  => WRF                                   931.176
  ===> Total WRF-GC                       1141.161
 max optd  1.7527504E+35
 max taucldi  0.2484894    
 max taucldw  9.3636118E-05
 Switching is not necessary as we are already
 in the right domain!
 GIGC_Chunk_Run: Running for in-PET grid #           1
 GIGC_Chunk_Run: Received new grid IM, JM, LM =          15           9
          49
 =================================================
 W R F - G C   T I M E R S
    Domain           1 (Units: s)
 =================================================
  => Coupler Component                       1.928
   -- Physics & Parameterization             0.497
   -- Diagnostics Out                        0.000
  => GEOS-Chem Column                      209.181
  ===> Total Chemistry                     211.109
  => WRF                                   949.256
  ===> Total WRF-GC                       1160.365
 max optd  1.7527504E+35
 max taucldi  0.2496285    
 max taucldw  9.5421550E-05
 Switching is not necessary as we are already
 in the right domain!
 GIGC_Chunk_Run: Running for in-PET grid #           1
 GIGC_Chunk_Run: Received new grid IM, JM, LM =          15           9
          49
 =================================================
 W R F - G C   T I M E R S
    Domain           1 (Units: s)
 =================================================
  => Coupler Component                       1.965
   -- Physics & Parameterization             0.506
   -- Diagnostics Out                        0.000
  => GEOS-Chem Column                      210.256
  ===> Total Chemistry                     212.221
  => WRF                                   967.363
  ===> Total WRF-GC                       1179.584
 max optd  1.7527504E+35
 max taucldi  0.2435914    
 max taucldw  9.5244373E-05
 Switching is not necessary as we are already
 in the right domain!
 GIGC_Chunk_Run: Running for in-PET grid #           1
 GIGC_Chunk_Run: Received new grid IM, JM, LM =          15           9
          49
 =================================================
 W R F - G C   T I M E R S
    Domain           1 (Units: s)
 =================================================
  => Coupler Component                       2.001
   -- Physics & Parameterization             0.516
   -- Diagnostics Out                        0.000
  => GEOS-Chem Column                      211.343
  ===> Total Chemistry                     213.344
  => WRF                                   985.501
  ===> Total WRF-GC                       1198.845
 max optd  1.7527504E+35
 max taucldi  0.2320091    
 max taucldw  9.4399235E-05
 Switching is not necessary as we are already
 in the right domain!
 GIGC_Chunk_Run: Running for in-PET grid #           1
 GIGC_Chunk_Run: Received new grid IM, JM, LM =          15           9
          49
 =================================================
 W R F - G C   T I M E R S
    Domain           1 (Units: s)
 =================================================
  => Coupler Component                       2.041
   -- Physics & Parameterization             0.525
   -- Diagnostics Out                        0.000
  => GEOS-Chem Column                      212.430
  ===> Total Chemistry                     214.470
  => WRF                                  1003.654
  ===> Total WRF-GC                       1218.124
 max optd  1.7527504E+35
 max taucldi  0.2205383    
 max taucldw  9.3722221E-05
 Switching is not necessary as we are already
 in the right domain!
 GIGC_Chunk_Run: Running for in-PET grid #           1
 GIGC_Chunk_Run: Received new grid IM, JM, LM =          15           9
          49
 =================================================
 W R F - G C   T I M E R S
    Domain           1 (Units: s)
 =================================================
  => Coupler Component                       2.080
   -- Physics & Parameterization             0.535
   -- Diagnostics Out                        0.000
  => GEOS-Chem Column                      213.526
  ===> Total Chemistry                     215.606
  => WRF                                  1021.727
  ===> Total WRF-GC                       1237.333
 max optd  1.7527504E+35
 max taucldi  0.2073165    
 max taucldw  8.9078836E-05
 Switching is not necessary as we are already
 in the right domain!
 GIGC_Chunk_Run: Running for in-PET grid #           1
 GIGC_Chunk_Run: Received new grid IM, JM, LM =          15           9
          49
 =================================================
 W R F - G C   T I M E R S
    Domain           1 (Units: s)
 =================================================
  => Coupler Component                       2.119
   -- Physics & Parameterization             0.544
   -- Diagnostics Out                        0.000
  => GEOS-Chem Column                      214.612
  ===> Total Chemistry                     216.731
  => WRF                                  1039.826
  ===> Total WRF-GC                       1256.557
 max optd  1.7527504E+35
 max taucldi  0.1923191    
 max taucldw  8.4730884E-05
 Switching is not necessary as we are already
 in the right domain!
 GIGC_Chunk_Run: Running for in-PET grid #           1
 GIGC_Chunk_Run: Received new grid IM, JM, LM =          15           9
          49
 =================================================
 W R F - G C   T I M E R S
    Domain           1 (Units: s)
 =================================================
  => Coupler Component                       2.160
   -- Physics & Parameterization             0.553
   -- Diagnostics Out                        0.000
  => GEOS-Chem Column                      215.706
  ===> Total Chemistry                     217.867
  => WRF                                  1057.911
  ===> Total WRF-GC                       1275.777
 max optd  1.7527504E+35
 max taucldi  0.1899312    
 max taucldw  8.9910951E-05
 Switching is not necessary as we are already
 in the right domain!
 GIGC_Chunk_Run: Running for in-PET grid #           1
 GIGC_Chunk_Run: Received new grid IM, JM, LM =          15           9
          49
 =================================================
 W R F - G C   T I M E R S
    Domain           1 (Units: s)
 =================================================
  => Coupler Component                       2.195
   -- Physics & Parameterization             0.563
   -- Diagnostics Out                        0.000
  => GEOS-Chem Column                      216.781
  ===> Total Chemistry                     218.976
  => WRF                                  1075.963
  ===> Total WRF-GC                       1294.938
 max optd  1.7527504E+35
 max taucldi  0.1871290    
 max taucldw  9.5812793E-05
 Switching is not necessary as we are already
 in the right domain!
 GIGC_Chunk_Run: Running for in-PET grid #           1
 GIGC_Chunk_Run: Received new grid IM, JM, LM =          15           9
          49
 =================================================
 W R F - G C   T I M E R S
    Domain           1 (Units: s)
 =================================================
  => Coupler Component                       2.234
   -- Physics & Parameterization             0.572
   -- Diagnostics Out                        0.000
  => GEOS-Chem Column                      217.866
  ===> Total Chemistry                     220.100
  => WRF                                  1094.010
  ===> Total WRF-GC                       1314.110
 HOURLY EMISSIONS UPDATE TIME    18000.0       0.0
mediation_integrate: med_read_wrf_chem_emissions: Read emissions for time 2018-01-01_05:00:00
 max optd  1.7527504E+35
 max taucldi  0.1850132    
 max taucldw  1.0076760E-04
 Switching is not necessary as we are already
 in the right domain!
 GIGC_Chunk_Run: Running for in-PET grid #           1
 GIGC_Chunk_Run: Received new grid IM, JM, LM =          15           9
          49
 =================================================
 W R F - G C   T I M E R S
    Domain           1 (Units: s)
 =================================================
  => Coupler Component                       2.271
   -- Physics & Parameterization             0.582
   -- Diagnostics Out                        0.000
  => GEOS-Chem Column                      218.944
  ===> Total Chemistry                     221.215
  => WRF                                  1112.145
  ===> Total WRF-GC                       1333.360
 max optd  1.7527504E+35
 max taucldi  0.1762629    
 max taucldw  1.0507180E-04
 Switching is not necessary as we are already
 in the right domain!
 GIGC_Chunk_Run: Running for in-PET grid #           1
 GIGC_Chunk_Run: Received new grid IM, JM, LM =          15           9
          49
 =================================================
 W R F - G C   T I M E R S
    Domain           1 (Units: s)
 =================================================
  => Coupler Component                       2.308
   -- Physics & Parameterization             0.591
   -- Diagnostics Out                        0.000
  => GEOS-Chem Column                      220.038
  ===> Total Chemistry                     222.345
  => WRF                                  1130.216
  ===> Total WRF-GC                       1352.562
 max optd  1.7527504E+35
 max taucldi  0.1733390    
 max taucldw  1.0848298E-04
 Switching is not necessary as we are already
 in the right domain!
 GIGC_Chunk_Run: Running for in-PET grid #           1
 GIGC_Chunk_Run: Received new grid IM, JM, LM =          15           9
          49
 =================================================
 W R F - G C   T I M E R S
    Domain           1 (Units: s)
 =================================================
  => Coupler Component                       2.343
   -- Physics & Parameterization             0.601
   -- Diagnostics Out                        0.000
  => GEOS-Chem Column                      221.124
  ===> Total Chemistry                     223.467
  => WRF                                  1148.281
  ===> Total WRF-GC                       1371.749
 max optd  1.7527504E+35
 max taucldi  0.1728520    
 max taucldw  1.1094381E-04
 Switching is not necessary as we are already
 in the right domain!
 GIGC_Chunk_Run: Running for in-PET grid #           1
 GIGC_Chunk_Run: Received new grid IM, JM, LM =          15           9
          49
 =================================================
 W R F - G C   T I M E R S
    Domain           1 (Units: s)
 =================================================
  => Coupler Component                       2.380
   -- Physics & Parameterization             0.611
   -- Diagnostics Out                        0.000
  => GEOS-Chem Column                      222.207
  ===> Total Chemistry                     224.587
  => WRF                                  1166.383
  ===> Total WRF-GC                       1390.970
 max optd  1.7527504E+35
 max taucldi  0.1673833    
 max taucldw  1.1376395E-04
 Switching is not necessary as we are already
 in the right domain!
 GIGC_Chunk_Run: Running for in-PET grid #           1
 GIGC_Chunk_Run: Received new grid IM, JM, LM =          15           9
          49
 =================================================
 W R F - G C   T I M E R S
    Domain           1 (Units: s)
 =================================================
  => Coupler Component                       2.417
   -- Physics & Parameterization             0.620
   -- Diagnostics Out                        0.000
  => GEOS-Chem Column                      223.293
  ===> Total Chemistry                     225.710
  => WRF                                  1184.535
  ===> Total WRF-GC                       1410.245
 max optd  1.7527504E+35
 max taucldi  0.1615923    
 max taucldw  1.1497960E-04
 Switching is not necessary as we are already
 in the right domain!
 GIGC_Chunk_Run: Running for in-PET grid #           1
 GIGC_Chunk_Run: Received new grid IM, JM, LM =          15           9
          49
 =================================================
 W R F - G C   T I M E R S
    Domain           1 (Units: s)
 =================================================
  => Coupler Component                       2.453
   -- Physics & Parameterization             0.630
   -- Diagnostics Out                        0.000
  => GEOS-Chem Column                      224.374
  ===> Total Chemistry                     226.827
  => WRF                                  1202.592
  ===> Total WRF-GC                       1429.419
 max optd  1.7527504E+35
 max taucldi  0.1589671    
 max taucldw  5.3936899E-02
 Switching is not necessary as we are already
 in the right domain!
 GIGC_Chunk_Run: Running for in-PET grid #           1
 GIGC_Chunk_Run: Received new grid IM, JM, LM =          15           9
          49
 =================================================
 W R F - G C   T I M E R S
    Domain           1 (Units: s)
 =================================================
  => Coupler Component                       2.492
   -- Physics & Parameterization             0.640
   -- Diagnostics Out                        0.000
  => GEOS-Chem Column                      225.464
  ===> Total Chemistry                     227.957
  => WRF                                  1220.757
  ===> Total WRF-GC                       1448.714
 max optd  1.7527504E+35
 max taucldi  0.1595251    
 max taucldw  8.3472617E-02
 Switching is not necessary as we are already
 in the right domain!
 GIGC_Chunk_Run: Running for in-PET grid #           1
 GIGC_Chunk_Run: Received new grid IM, JM, LM =          15           9
          49
 =================================================
 W R F - G C   T I M E R S
    Domain           1 (Units: s)
 =================================================
  => Coupler Component                       2.530
   -- Physics & Parameterization             0.649
   -- Diagnostics Out                        0.000
  => GEOS-Chem Column                      226.553
  ===> Total Chemistry                     229.082
  => WRF                                  1238.827
  ===> Total WRF-GC                       1467.909
 max optd  1.7527504E+35
 max taucldi  0.1576847    
 max taucldw  0.1107235    
 Switching is not necessary as we are already
 in the right domain!
 GIGC_Chunk_Run: Running for in-PET grid #           1
 GIGC_Chunk_Run: Received new grid IM, JM, LM =          15           9
          49
 =================================================
 W R F - G C   T I M E R S
    Domain           1 (Units: s)
 =================================================
  => Coupler Component                       2.568
   -- Physics & Parameterization             0.658
   -- Diagnostics Out                        0.000
  => GEOS-Chem Column                      227.644
  ===> Total Chemistry                     230.212
  => WRF                                  1256.960
  ===> Total WRF-GC                       1487.171
 max optd  1.7527504E+35
 max taucldi  0.1521358    
 max taucldw  0.1678486    
 Switching is not necessary as we are already
 in the right domain!
 GIGC_Chunk_Run: Running for in-PET grid #           1
 GIGC_Chunk_Run: Received new grid IM, JM, LM =          15           9
          49
 =================================================
 W R F - G C   T I M E R S
    Domain           1 (Units: s)
 =================================================
  => Coupler Component                       2.607
   -- Physics & Parameterization             0.668
   -- Diagnostics Out                        0.000
  => GEOS-Chem Column                      228.733
  ===> Total Chemistry                     231.340
  => WRF                                  1275.319
  ===> Total WRF-GC                       1506.659
 max optd  1.7527504E+35
 max taucldi  0.1483306    
 max taucldw  0.2099781    
 Switching is not necessary as we are already
 in the right domain!
 GIGC_Chunk_Run: Running for in-PET grid #           1
 GIGC_Chunk_Run: Received new grid IM, JM, LM =          15           9
          49
 =================================================
 W R F - G C   T I M E R S
    Domain           1 (Units: s)
 =================================================
  => Coupler Component                       2.645
   -- Physics & Parameterization             0.678
   -- Diagnostics Out                        0.000
  => GEOS-Chem Column                      229.815
  ===> Total Chemistry                     232.460
  => WRF                                  1293.415
  ===> Total WRF-GC                       1525.875
 max optd  1.7527504E+35
 max taucldi  0.1404756    
 max taucldw  0.2410323    
 Switching is not necessary as we are already
 in the right domain!
 GIGC_Chunk_Run: Running for in-PET grid #           1
 GIGC_Chunk_Run: Received new grid IM, JM, LM =          15           9
          49
 =================================================
 W R F - G C   T I M E R S
    Domain           1 (Units: s)
 =================================================
  => Coupler Component                       2.677
   -- Physics & Parameterization             0.687
   -- Diagnostics Out                        0.000
  => GEOS-Chem Column                      230.892
  ===> Total Chemistry                     233.569
  => WRF                                  1311.515
  ===> Total WRF-GC                       1545.084
 HOURLY EMISSIONS UPDATE TIME    21600.0       0.0
mediation_integrate: med_read_wrf_chem_emissions: Read emissions for time 2018-01-01_06:00:00
 max optd  1.7527504E+35
 max taucldi  0.1311404    
 max taucldw  0.2957197    
 Switching is not necessary as we are already
 in the right domain!
 GIGC_Chunk_Run: Running for in-PET grid #           1
 GIGC_Chunk_Run: Received new grid IM, JM, LM =          15           9
          49
 =================================================
 W R F - G C   T I M E R S
    Domain           1 (Units: s)
 =================================================
  => Coupler Component                       2.720
   -- Physics & Parameterization             0.697
   -- Diagnostics Out                        0.000
  => GEOS-Chem Column                      231.975
  ===> Total Chemistry                     234.696
  => WRF                                  1770.165
  ===> Total WRF-GC                       2004.860
 max optd  1.7527504E+35
 max taucldi  0.1281516    
 max taucldw  0.3297776    
 Switching is not necessary as we are already
 in the right domain!
 GIGC_Chunk_Run: Running for in-PET grid #           1
 GIGC_Chunk_Run: Received new grid IM, JM, LM =          15           9
          49
 =================================================
 W R F - G C   T I M E R S
    Domain           1 (Units: s)
 =================================================
  => Coupler Component                       2.761
   -- Physics & Parameterization             0.706
   -- Diagnostics Out                        0.000
  => GEOS-Chem Column                      233.065
  ===> Total Chemistry                     235.826
  => WRF                                  1788.271
  ===> Total WRF-GC                       2024.097
 max optd  1.7527504E+35
 max taucldi  0.1253383    
 max taucldw  0.3387896    
 Switching is not necessary as we are already
 in the right domain!
 GIGC_Chunk_Run: Running for in-PET grid #           1
 GIGC_Chunk_Run: Received new grid IM, JM, LM =          15           9
          49
 =================================================
 W R F - G C   T I M E R S
    Domain           1 (Units: s)
 =================================================
  => Coupler Component                       2.798
   -- Physics & Parameterization             0.715
   -- Diagnostics Out                        0.000
  => GEOS-Chem Column                      234.147
  ===> Total Chemistry                     236.945
  => WRF                                  1806.510
  ===> Total WRF-GC                       2043.455
 max optd  1.7527504E+35
 max taucldi  0.1210463    
 max taucldw  0.3516042    
 Switching is not necessary as we are already
 in the right domain!
 GIGC_Chunk_Run: Running for in-PET grid #           1
 GIGC_Chunk_Run: Received new grid IM, JM, LM =          15           9
          49
 =================================================
 W R F - G C   T I M E R S
    Domain           1 (Units: s)
 =================================================
  => Coupler Component                       2.836
[...]
  => GEOS-Chem Column                      283.056
  ===> Total Chemistry                     287.526
  => WRF                                  2623.114
  ===> Total WRF-GC                       2910.640
 HOURLY EMISSIONS UPDATE TIME    36000.0       0.0
mediation_integrate: med_read_wrf_chem_emissions: Read emissions for time 2018-01-01_10:00:00
 max optd  1.7527504E+35
 max taucldi  0.1586435    
 max taucldw  0.2541232    
 Switching is not necessary as we are already
 in the right domain!
 GIGC_Chunk_Run: Running for in-PET grid #           1
 GIGC_Chunk_Run: Received new grid IM, JM, LM =          15           9
          49
 =================================================
 W R F - G C   T I M E R S
    Domain           1 (Units: s)
 =================================================
  => Coupler Component                       4.503
   -- Physics & Parameterization             1.155
   -- Diagnostics Out                        0.000
  => GEOS-Chem Column                      284.147
  ===> Total Chemistry                     288.650
  => WRF                                  2641.322
  ===> Total WRF-GC                       2929.973
 max optd  1.7527504E+35
 max taucldi  0.1603517    
 max taucldw  0.1145311    
 Switching is not necessary as we are already
 in the right domain!
 GIGC_Chunk_Run: Running for in-PET grid #           1
 GIGC_Chunk_Run: Received new grid IM, JM, LM =          15           9
          49
 =================================================
 W R F - G C   T I M E R S
    Domain           1 (Units: s)
 =================================================
  => Coupler Component                       4.548
   -- Physics & Parameterization             1.165
   -- Diagnostics Out                        0.000
  => GEOS-Chem Column                      285.221
  ===> Total Chemistry                     289.770
  => WRF                                  2659.431
  ===> Total WRF-GC                       2949.201
 max optd  1.7527504E+35
 max taucldi  0.1652739    
 max taucldw  1.9789698E-04
 Switching is not necessary as we are already
 in the right domain!
 GIGC_Chunk_Run: Running for in-PET grid #           1
 GIGC_Chunk_Run: Received new grid IM, JM, LM =          15           9
          49
 =================================================
 W R F - G C   T I M E R S
    Domain           1 (Units: s)
 =================================================
  => Coupler Component                       4.583
   -- Physics & Parameterization             1.174
   -- Diagnostics Out                        0.000
  => GEOS-Chem Column                      286.302
  ===> Total Chemistry                     290.885
  => WRF                                  2677.559
  ===> Total WRF-GC                       2968.444
 max optd  1.7527504E+35
 max taucldi  0.1675228    
 max taucldw  1.9669873E-04
 Switching is not necessary as we are already
 in the right domain!
 GIGC_Chunk_Run: Running for in-PET grid #           1
 GIGC_Chunk_Run: Received new grid IM, JM, LM =          15           9
          49
 =================================================
 W R F - G C   T I M E R S
    Domain           1 (Units: s)
 =================================================
  => Coupler Component                       4.616
   -- Physics & Parameterization             1.184
   -- Diagnostics Out                        0.000
  => GEOS-Chem Column                      287.385
  ===> Total Chemistry                     292.002
  => WRF                                  2695.769
  ===> Total WRF-GC                       2987.771
 max optd  1.7527504E+35
 max taucldi  0.1643864    
 max taucldw  1.9656036E-04
 Switching is not necessary as we are already
 in the right domain!
 GIGC_Chunk_Run: Running for in-PET grid #           1
 GIGC_Chunk_Run: Received new grid IM, JM, LM =          15           9
          49
 =================================================
 W R F - G C   T I M E R S
    Domain           1 (Units: s)
 =================================================
  => Coupler Component                       4.653
   -- Physics & Parameterization             1.193
   -- Diagnostics Out                        0.000
  => GEOS-Chem Column                      288.475
  ===> Total Chemistry                     293.127
  => WRF                                  2713.928
  ===> Total WRF-GC                       3007.055
 max optd  1.7527504E+35
 max taucldi  0.1573392    
 max taucldw  1.9726003E-04
 Switching is not necessary as we are already
 in the right domain!
 GIGC_Chunk_Run: Running for in-PET grid #           1
 GIGC_Chunk_Run: Received new grid IM, JM, LM =          15           9
          49
 =================================================
 W R F - G C   T I M E R S
    Domain           1 (Units: s)
 =================================================
  => Coupler Component                       4.689
   -- Physics & Parameterization             1.203
   -- Diagnostics Out                        0.000
  => GEOS-Chem Column                      289.566
  ===> Total Chemistry                     294.255
  => WRF                                  2731.996
  ===> Total WRF-GC                       3026.251
 max optd  1.7527504E+35
 max taucldi  0.1482049    
 max taucldw  1.9830400E-04
 Switching is not necessary as we are already
 in the right domain!
 GIGC_Chunk_Run: Running for in-PET grid #           1
 GIGC_Chunk_Run: Received new grid IM, JM, LM =          15           9
          49
 =================================================
 W R F - G C   T I M E R S
    Domain           1 (Units: s)
 =================================================
  => Coupler Component                       4.722
   -- Physics & Parameterization             1.212
   -- Diagnostics Out                        0.000
  => GEOS-Chem Column                      290.650
  ===> Total Chemistry                     295.372
  => WRF                                  2750.145
  ===> Total WRF-GC                       3045.517
 max optd  1.7527504E+35
 max taucldi  0.1424112    
 max taucldw  2.0595838E-04
 Switching is not necessary as we are already
 in the right domain!
 GIGC_Chunk_Run: Running for in-PET grid #           1
 GIGC_Chunk_Run: Received new grid IM, JM, LM =          15           9
          49
 =================================================
 W R F - G C   T I M E R S
    Domain           1 (Units: s)
 =================================================
  => Coupler Component                       4.760
   -- Physics & Parameterization             1.222
   -- Diagnostics Out                        0.000
  => GEOS-Chem Column                      291.744
  ===> Total Chemistry                     296.504
  => WRF                                  2768.284
  ===> Total WRF-GC                       3064.788
 max optd  1.7527504E+35
 max taucldi  0.1396845    
 max taucldw  2.1562896E-04
 Switching is not necessary as we are already
 in the right domain!
 GIGC_Chunk_Run: Running for in-PET grid #           1
 GIGC_Chunk_Run: Received new grid IM, JM, LM =          15           9
          49
 =================================================
 W R F - G C   T I M E R S
    Domain           1 (Units: s)
 =================================================
  => Coupler Component                       4.793
   -- Physics & Parameterization             1.231
   -- Diagnostics Out                        0.000
  => GEOS-Chem Column                      292.830
  ===> Total Chemistry                     297.624
  => WRF                                  2786.374
  ===> Total WRF-GC                       3083.998
 max optd  1.7527504E+35
 max taucldi  0.1339167    
 max taucldw  2.2535218E-04
 Switching is not necessary as we are already
 in the right domain!
 GIGC_Chunk_Run: Running for in-PET grid #           1
 GIGC_Chunk_Run: Received new grid IM, JM, LM =          15           9
          49
 =================================================
 W R F - G C   T I M E R S
    Domain           1 (Units: s)
 =================================================
  => Coupler Component                       4.828
   -- Physics & Parameterization             1.241
   -- Diagnostics Out                        0.000
  => GEOS-Chem Column                      293.912
  ===> Total Chemistry                     298.740
  => WRF                                  2804.567
  ===> Total WRF-GC                       3103.308
 max optd  1.7527504E+35
 max taucldi  0.1266619    
 max taucldw  2.3492945E-04
 Switching is not necessary as we are already
 in the right domain!
 GIGC_Chunk_Run: Running for in-PET grid #           1
 GIGC_Chunk_Run: Received new grid IM, JM, LM =          15           9
          49
 =================================================
 W R F - G C   T I M E R S
    Domain           1 (Units: s)
 =================================================
  => Coupler Component                       4.862
   -- Physics & Parameterization             1.250
   -- Diagnostics Out                        0.000
  => GEOS-Chem Column                      295.005
  ===> Total Chemistry                     299.867
  => WRF                                  2822.692
  ===> Total WRF-GC                       3122.559
 max optd  1.7527504E+35
 max taucldi  0.1275901    
 max taucldw  2.4416414E-04
 Switching is not necessary as we are already
 in the right domain!
 GIGC_Chunk_Run: Running for in-PET grid #           1
 GIGC_Chunk_Run: Received new grid IM, JM, LM =          15           9
          49
 =================================================
 W R F - G C   T I M E R S
    Domain           1 (Units: s)
 =================================================
  => Coupler Component                       4.898
   -- Physics & Parameterization             1.260
   -- Diagnostics Out                        0.000
  => GEOS-Chem Column                      296.101
  ===> Total Chemistry                     301.000
  => WRF                                  2840.856
  ===> Total WRF-GC                       3141.856
 HOURLY EMISSIONS UPDATE TIME    39600.0       0.0
mediation_integrate: med_read_wrf_chem_emissions: Read emissions for time 2018-01-01_11:00:00
 max optd  1.7527504E+35
 max taucldi  0.1341822    
 max taucldw  2.5284439E-04
 Switching is not necessary as we are already
 in the right domain!
 GIGC_Chunk_Run: Running for in-PET grid #           1
 GIGC_Chunk_Run: Received new grid IM, JM, LM =          15           9
          49
 =================================================
 W R F - G C   T I M E R S
    Domain           1 (Units: s)
 =================================================
  => Coupler Component                       4.933
   -- Physics & Parameterization             1.269
   -- Diagnostics Out                        0.000
  => GEOS-Chem Column                      297.193
  ===> Total Chemistry                     302.126
  => WRF                                  2859.004
  ===> Total WRF-GC                       3161.130
 max optd  1.7527504E+35
 max taucldi  0.1389659    
 max taucldw  2.6070682E-04
 Switching is not necessary as we are already
 in the right domain!
 GIGC_Chunk_Run: Running for in-PET grid #           1
 GIGC_Chunk_Run: Received new grid IM, JM, LM =          15           9
          49
 =================================================
 W R F - G C   T I M E R S
    Domain           1 (Units: s)
 =================================================
  => Coupler Component                       4.971
   -- Physics & Parameterization             1.278
   -- Diagnostics Out                        0.000
  => GEOS-Chem Column                      298.284
  ===> Total Chemistry                     303.255
  => WRF                                  2877.099
  ===> Total WRF-GC                       3180.354
 max optd  1.7527504E+35
 max taucldi  0.1301975    
 max taucldw  2.6748073E-04
 Switching is not necessary as we are already
 in the right domain!
 GIGC_Chunk_Run: Running for in-PET grid #           1
 GIGC_Chunk_Run: Received new grid IM, JM, LM =          15           9
          49
 =================================================
 W R F - G C   T I M E R S
    Domain           1 (Units: s)
 =================================================
  => Coupler Component                       5.006
   -- Physics & Parameterization             1.288
   -- Diagnostics Out                        0.000
  => GEOS-Chem Column                      299.371
  ===> Total Chemistry                     304.377
  => WRF                                  2895.303
  ===> Total WRF-GC                       3199.680
 max optd  1.7527504E+35
 max taucldi  0.1070602    
 max taucldw  2.7292824E-04
 Switching is not necessary as we are already
 in the right domain!
 GIGC_Chunk_Run: Running for in-PET grid #           1
 GIGC_Chunk_Run: Received new grid IM, JM, LM =          15           9
          49
 =================================================
 W R F - G C   T I M E R S
    Domain           1 (Units: s)
 =================================================
  => Coupler Component                       5.050
   -- Physics & Parameterization             1.297
   -- Diagnostics Out                        0.000
  => GEOS-Chem Column                      300.443
  ===> Total Chemistry                     305.493
  => WRF                                  2913.542
  ===> Total WRF-GC                       3219.035
 max optd  1.7527504E+35
 max taucldi  0.1022132    
 max taucldw  2.7739999E-04
 Switching is not necessary as we are already
 in the right domain!
 GIGC_Chunk_Run: Running for in-PET grid #           1
 GIGC_Chunk_Run: Received new grid IM, JM, LM =          15           9
          49
 =================================================
 W R F - G C   T I M E R S
    Domain           1 (Units: s)
 =================================================
  => Coupler Component                       5.086
   -- Physics & Parameterization             1.307
   -- Diagnostics Out                        0.000
  => GEOS-Chem Column                      301.522
  ===> Total Chemistry                     306.609
  => WRF                                  2931.944
  ===> Total WRF-GC                       3238.553
 max optd  1.7527504E+35
 max taucldi  9.3297616E-02
 max taucldw  2.8033162E-04
 Switching is not necessary as we are already
 in the right domain!
 GIGC_Chunk_Run: Running for in-PET grid #           1
 GIGC_Chunk_Run: Received new grid IM, JM, LM =          15           9
          49
 =================================================
 W R F - G C   T I M E R S
    Domain           1 (Units: s)
 =================================================
  => Coupler Component                       5.127
   -- Physics & Parameterization             1.317
   -- Diagnostics Out                        0.000
  => GEOS-Chem Column                      302.608
  ===> Total Chemistry                     307.735
  => WRF                                  2950.320
  ===> Total WRF-GC                       3258.054
 max optd  1.7527504E+35
 max taucldi  8.8566698E-02
 max taucldw  2.8225145E-04
 Switching is not necessary as we are already
 in the right domain!
 GIGC_Chunk_Run: Running for in-PET grid #           1
 GIGC_Chunk_Run: Received new grid IM, JM, LM =          15           9
          49
 =================================================
 W R F - G C   T I M E R S
    Domain           1 (Units: s)
 =================================================
  => Coupler Component                       5.161
   -- Physics & Parameterization             1.326
   -- Diagnostics Out                        0.000
  => GEOS-Chem Column                      303.695
  ===> Total Chemistry                     308.856
  => WRF                                  2968.824
  ===> Total WRF-GC                       3277.680
 max optd  1.7527504E+35
 max taucldi  9.3627706E-02
 max taucldw  2.8327332E-04
 Switching is not necessary as we are already
 in the right domain!
 GIGC_Chunk_Run: Running for in-PET grid #           1
 GIGC_Chunk_Run: Received new grid IM, JM, LM =          15           9
          49
 =================================================
 W R F - G C   T I M E R S
    Domain           1 (Units: s)
 =================================================
  => Coupler Component                       5.196
   -- Physics & Parameterization             1.335
   -- Diagnostics Out                        0.000
  => GEOS-Chem Column                      304.789
  ===> Total Chemistry                     309.984
  => WRF                                  2987.362
  ===> Total WRF-GC                       3297.346
 max optd  1.7527504E+35
 max taucldi  0.1075846    
 max taucldw  2.8359020E-04
 Switching is not necessary as we are already
 in the right domain!
 GIGC_Chunk_Run: Running for in-PET grid #           1
 GIGC_Chunk_Run: Received new grid IM, JM, LM =          15           9
          49
 =================================================
 W R F - G C   T I M E R S
    Domain           1 (Units: s)
 =================================================
  => Coupler Component                       5.234
   -- Physics & Parameterization             1.345
   -- Diagnostics Out                        0.000
  => GEOS-Chem Column                      305.876
  ===> Total Chemistry                     311.109
  => WRF                                  3006.019
  ===> Total WRF-GC                       3317.128
 max optd  1.7527504E+35
 max taucldi  0.1200201    
 max taucldw  2.8342719E-04
 Switching is not necessary as we are already
 in the right domain!
 GIGC_Chunk_Run: Running for in-PET grid #           1
 GIGC_Chunk_Run: Received new grid IM, JM, LM =          15           9
          49
 =================================================
 W R F - G C   T I M E R S
    Domain           1 (Units: s)
 =================================================
  => Coupler Component                       5.272
   -- Physics & Parameterization             1.355
   -- Diagnostics Out                        0.000
  => GEOS-Chem Column                      306.949
  ===> Total Chemistry                     312.221
  => WRF                                  3024.885
  ===> Total WRF-GC                       3337.106
 max optd  1.7527504E+35
 max taucldi  0.1232391    
 max taucldw  2.8291860E-04
 Switching is not necessary as we are already
 in the right domain!
 GIGC_Chunk_Run: Running for in-PET grid #           1
 GIGC_Chunk_Run: Received new grid IM, JM, LM =          15           9
          49
 =================================================
 W R F - G C   T I M E R S
    Domain           1 (Units: s)
 =================================================
  => Coupler Component                       5.310
   -- Physics & Parameterization             1.364
   -- Diagnostics Out                        0.000
  => GEOS-Chem Column                      308.032
  ===> Total Chemistry                     313.342
  => WRF                                  3043.676
  ===> Total WRF-GC                       3357.017
 max optd  1.7527504E+35
 max taucldi  0.1151253    
 max taucldw  2.8210331E-04
 Switching is not necessary as we are already
 in the right domain!
 GIGC_Chunk_Run: Running for in-PET grid #           1
 GIGC_Chunk_Run: Received new grid IM, JM, LM =          15           9
          49
 =================================================
 W R F - G C   T I M E R S
    Domain           1 (Units: s)
 =================================================
  => Coupler Component                       5.344
   -- Physics & Parameterization             1.373
   -- Diagnostics Out                        0.000
  => GEOS-Chem Column                      309.107
  ===> Total Chemistry                     314.451
  => WRF                                  3062.394
  ===> Total WRF-GC                       3376.844
d01 2018-01-01_12:00:00 wrf: SUCCESS COMPLETE WRF
