taskid: 3949 hostname: ip-172-31-13-85
Quilting with   1 groups of   0 I/O tasks.
 Ntasks in X           64 , ntasks in Y           72
--- WARNING: traj_opt is zero, but num_traj is not zero; setting num_traj to zero.
--- NOTE: sst_update is 0, setting io_form_auxinput4 = 0 and auxinput4_interval = 0 for all domains
--- NOTE: grid_fdda is 0 for domain      1, setting gfdda interval and ending time to 0 for that domain.
--- NOTE: both grid_sfdda and pxlsm_soil_nudge are 0 for domain      1, setting sgfdda interval and ending time to 0 for that domain.
--- NOTE: obs_nudge_opt is 0 for domain      1, setting obs nudging interval and ending time to 0 for that domain.
--- NOTE: bl_pbl_physics /= 4, implies mfshconv must be 0, resetting
Need MYNN PBL for icloud_bl = 1, resetting to 0
*************************************
No physics suite selected.
Physics options will be used directly from the namelist.
*************************************
--- NOTE: RRTMG radiation is in use, setting:  levsiz=59, alevsiz=12, no_src_types=6
--- NOTE: num_soil_layers has been set to      4
WRF V3.9.1.1 MODEL
 *************************************
 Parent domain
 ids,ide,jds,jde            1         950           1         650
 ims,ime,jms,jme          659         687         544         566
 ips,ipe,jps,jpe          666         680         551         559
 *************************************
DYNAMICS OPTION: Eulerian Mass Coordinate
   alloc_space_field: domain            1 ,              203623800  bytes allocated
  med_initialdata_input: calling input_input
Max map factor in domain 1 =  1.40. Scale the dt in the model accordingly.
INPUT LandUse = "USGS"
 LANDUSE TYPE = "USGS" FOUND          33  CATEGORIES           2  SEASONS WATER CATEGORY =           16  SNOW CATEGORY =           24
INITIALIZE THREE Noah LSM RELATED TABLES
*****************************************************************
  __          _______  ______       _____  _____ _    _ _____
  \ \        / /  __ \|  ____|     / ____|/ ____| |  | |  __ \
   \ \  /\  / /| |__) | |__ ______| |  __| |    | |__| | |__) |
    \ \/  \/ / |  _  /|  __|______| | |_ | |    |  __  |  ___/
     \  /\  /  | | \ \| |         | |__| | |____| |  | | |
      \/  \/   |_|  \_\_|          \_____|\_____|_|  |_|_|
*****************************************************************
         WRF-GC MODEL, VERSION 1811.11 - WRF BINDINGS
 For errors, suggestions & feedback email linhaipeng@pku.edu.cn
*****************************************************************
    This is domain            1
 ### GIGC_Stateful_Mod: Root CPU, after READ_INPUT_FILE
  Linoz Data:  O3 climatology :                  z*=10, 12, ..., 58                             2.700E-08 1.083E-05
  Linoz Data:  Temperature climatology :         z*=10, 12, ..., 58                             1.859E+02 2.904E+02
  Linoz Data:  Column O3 above box climalology : z*=10, 12, ..., 58                             7.538E-02 3.770E+02
  Linoz Data:  P-L O3 climatology (mr/s):        z*=10, 12, ..., 58                            -1.590E-10 2.835E-11
  Linoz Data:  d(P-L)/dO3 (1/s) :                z*=10, 12, ..., 58                            -8.386E-04 7.556E-09
  Linoz Data:  d(P-L)/dT (mr/K) :                z*=10, 12, ..., 58                            -5.742E-12 4.615E-14
  Linoz Data:  d(P-L)/d(column O3) (mr/DU) :     z*=10, 12, ..., 58                            -1.921E-12 5.038E-10
 ### GIGC_Stateful_Mod: Root CPU, after LINOZ_READ
 %%%%%%%%% GIGC IN-PET GRID SWITCHING HACKS %%%%%%%%%
     (Not very) Proudly brought to you by hplin      
 Some debug information:
 ID:           1
 IM, JM, LM:          15           9          49  will be set as PAR
 Allocs: CMN T GC F
 RC at entry-point:           0
 %%%%%%%%%%%%%%%%%%%%%%%%%%%%%%%%%%%%%%%%%%%%%%%%%%%%
 No need to switch HcoState for ID           1
 Exit RC:            0
 %%%%%%%%%    FINISHED GIGC_Switch_Dims    %%%%%%%%%
 GIGC_Chunk_Init: Received new grid IM, JM, LM =          15           9
          49
     ### GIGC_INIT_SIMULATION: after Input_Opt% setups
     ### GIGC_INIT_SIMULATION: after GC_Init_All
     ### GIGC_INIT_SIMULATION: after GC_Init_Extra
     ### GIGC_INIT_SIMULATION: after INIT_FJX
 # GIGC_CHUNK_MOD: after SV save, ID =           1
 WRFGC chemics_init: Following information regarding Input_Opt% (for all doms)
 After domain           1
 HPC:  T
 LPRT:  F
 DoConv:  T
 DoDryDep:  T
 DoEmis:  T
 DoChem:  T
 DoTurb:  T
 DoWetDep:  T

 tropopause_init: DONE intialized domain            1

 mediation_integrate: med_read_wrf_chem_emissions: Open file wrfchemi_00z_d01
 HOURLY EMISSIONS UPDATE TIME        0.0       0.0
mediation_integrate: med_read_wrf_chem_emissions: Read emissions for time 2018-01-01_00:00:00
open_aux_u : error opening wrffirechemi_d01_2018-01-01_00:00:00 for reading. 100
open_aux_u : error opening wrfchemi_gocart_bg_d01 for reading. 100
d01 2018-01-01_00:00:00 Input data processed for aux input   8 for domain   1
open_aux_u : error opening wrfchemv_d01 for reading. 100
 Tile Strategy is not specified. Assuming 1D-Y
WRF TILE   1 IS    666 IE    680 JS    551 JE    559
WRF NUMBER OF TILES =   1
 max optd  3.3547268E+12
 max taucldi  0.0000000E+00
 max taucldw  0.0000000E+00
 =================================================
 W R F - G C   T I M E R S
    Domain           1 (Units: s)
 =================================================
  => Coupler Component                       0.034
   -- Physics & Parameterization             0.001
   -- Diagnostics Out                        0.000
  => GEOS-Chem Column                        0.000
  ===> Total Chemistry                       0.034
  => WRF                                     0.000
  ===> Total WRF-GC                          0.034
 max optd  3.3547268E+12
 max taucldi  1.0000006E-14
 max taucldw  1.0000006E-14
 %%%%%%%%% GIGC IN-PET GRID SWITCHING HACKS %%%%%%%%%
     (Not very) Proudly brought to you by hplin      
 Some debug information:
 ID:           1
 IM, JM, LM:          15           9          49  will be set as PAR
 Allocs: CMN T GC T
 RC at entry-point:           0
 %%%%%%%%%%%%%%%%%%%%%%%%%%%%%%%%%%%%%%%%%%%%%%%%%%%%
 No need to switch HcoState for ID           1
 Debug HcoState nSpc, NX, NY, NZ         163          15           9          49
 Exit RC:            0
 %%%%%%%%%    FINISHED GIGC_Switch_Dims    %%%%%%%%%
 GIGC_Chunk_Run: Running for in-PET grid #           1
 GIGC_Chunk_Run: Received new grid IM, JM, LM =          15           9
          49
HEMCO: Opening /fsx/HEMCO/BIOFUEL/v2014-07/biofuel.geos.4x5.nc
HEMCO: Opening /fsx/HEMCO/BROMINE/v2015-02/Bromocarb_Liang2010.nc
HEMCO: Opening /fsx/HEMCO/ACET/v2014-07/ACET_seawater.generic.1x1.nc
HEMCO: Opening /fsx/HEMCO/SOILNOX/v2014-07/DepReservoirDefault.nc
HEMCO: Opening /fsx/HEMCO/SOILNOX/v2014-07/soilNOx.landtype.generic.025x025.1L.nc
HEMCO: Opening /fsx/HEMCO/SOILNOX/v2014-07/soilNOx.climate.generic.05x05.nc
HEMCO: Opening /fsx/HEMCO/DUST_DEAD/v2014-07/dst_tibds.geos.4x5.nc
HEMCO: Opening /fsx/HEMCO/DUST_DEAD/v2014-07/GOCART_src_fn.geos.4x5.nc
HEMCO: Opening /fsx/HEMCO/MEGAN/v2018-05/MEGAN2.1_EF.geos.025x03125.nc
HEMCO: Opening /fsx/HEMCO/MEGAN/v2017-07/CLM4_PFT.geos.025x03125.nc
HEMCO: Opening /fsx/HEMCO/TIMEZONES/v2015-02/timezones_voronoi_1x1.nc
HEMCO: Opening /fsx/HEMCO/STRAT/v2015-01/Bry/GEOSCCM_Bry.200701.day.nc
HEMCO: Opening /fsx/HEMCO/STRAT/v2015-01/Bry/GEOSCCM_Bry.200701.night.nc
HEMCO: Opening /fsx/HEMCO/OMOC/v2018-01/OMOC.DJF.01x01.nc
HEMCO: Opening /fsx/HEMCO/OMOC/v2018-01/OMOC.MAM.01x01.nc
HEMCO: Opening /fsx/HEMCO/OMOC/v2018-01/OMOC.JJA.01x01.nc
HEMCO: Opening /fsx/HEMCO/OMOC/v2018-01/OMOC.SON.01x01.nc
HEMCO: Opening /fsx/HEMCO/AnnualScalar/v2014-07/AnnualScalar.geos.1x1.nc
HEMCO: Opening /fsx/HEMCO/EDGARv42/v2015-02/NO/EDGAR_hourly_NOxScal.nc
HEMCO: Opening /fsx/HEMCO/MASKS/v2018-09/EMEP_mask.geos.1x1.20151222.nc
HEMCO: Opening /fsx/HEMCO/MASKS/v2018-09/Canada_mask.geos.1x1.nc
HEMCO: Opening /fsx/HEMCO/MASKS/v2018-09/SE_Asia_mask.generic.1x1.nc
HEMCO: Opening /fsx/HEMCO/MASKS/v2018-09/MIX_Asia_mask.generic.025x025.nc
HEMCO: Opening /fsx/HEMCO/MASKS/v2018-09/CONUS_Mask.01x01.nc
HEMCO: Opening /fsx/HEMCO/MASKS/v2018-09/AF_LANDMASK.geos.05x0666.global.nc
HEMCO: Opening /fsx/HEMCO/MASKS/v2018-09/China_mask.generic.1x1.nc
HEMCO: Opening /fsx/HEMCO/MASKS/v2018-09/India_mask.generic.1x1.nc
HEMCO: Opening /fsx/HEMCO/AnnualScalar/v2014-07/AnnualScalar.geos.1x1.nc
HEMCO: Opening /fsx/HEMCO/NH3/v2014-07/NH3_geos.4x5.nc
HEMCO: Opening /fsx/HEMCO/NH3/v2018-04/NH3_Arctic_seabirds.nc
HEMCO: Opening /fsx/HEMCO/CEDS/v2018-08/2014/NO-em-anthro_CMIP_CEDS_2014.nc
HEMCO: Opening /fsx/HEMCO/CEDS/v2018-08/2014/CO-em-anthro_CMIP_CEDS_2014.nc
HEMCO: Opening /fsx/HEMCO/CEDS/v2018-08/2014/SO2-em-anthro_CMIP_CEDS_2014.nc
HEMCO: Opening /fsx/HEMCO/CEDS/v2018-08/2014/NH3-em-anthro_CMIP_CEDS_2014.nc
HEMCO: Opening /fsx/HEMCO/CEDS/v2018-08/2014/BC-em-anthro_CMIP_CEDS_2014.nc
HEMCO: Opening /fsx/HEMCO/CEDS/v2018-08/2014/OC-em-anthro_CMIP_CEDS_2014.nc
HEMCO: Opening /fsx/HEMCO/CEDS/v2018-08/2014/EOH-em-anthro_CMIP_CEDS_2014.nc
HEMCO: Opening /fsx/HEMCO/CEDS/v2018-08/2014/C2H6-em-anthro_CMIP_CEDS_2014.nc
HEMCO: Opening /fsx/HEMCO/CEDS/v2018-08/2014/C3H8-em-anthro_CMIP_CEDS_2014.nc
HEMCO: Opening /fsx/HEMCO/CEDS/v2018-08/2014/ALK4_butanes-em-anthro_CMIP_CEDS_2014.nc
HEMCO: Opening /fsx/HEMCO/CEDS/v2018-08/2014/ALK4_pentanes-em-anthro_CMIP_CEDS_2014.nc
HEMCO: Opening /fsx/HEMCO/CEDS/v2018-08/2014/ALK4_hexanes-em-anthro_CMIP_CEDS_2014.nc
HEMCO: Opening /fsx/HEMCO/CEDS/v2018-08/2014/PRPE-em-anthro_CMIP_CEDS_2014.nc
HEMCO: Opening /fsx/HEMCO/CEDS/v2018-08/2014/BENZ-em-anthro_CMIP_CEDS_2014.nc
HEMCO: Opening /fsx/HEMCO/CEDS/v2018-08/2014/TOLU-em-anthro_CMIP_CEDS_2014.nc
HEMCO: Opening /fsx/HEMCO/CEDS/v2018-08/2014/XYLE-em-anthro_CMIP_CEDS_2014.nc
HEMCO: Opening /fsx/HEMCO/CEDS/v2018-08/2014/CH2O-em-anthro_CMIP_CEDS_2014.nc
HEMCO: Opening /fsx/HEMCO/CEDS/v2018-08/2014/ALD2-em-anthro_CMIP_CEDS_2014.nc
HEMCO: Opening /fsx/HEMCO/CEDS/v2018-08/2014/MEK-em-anthro_CMIP_CEDS_2014.nc
HEMCO: Opening /fsx/HEMCO/CEDS/v2018-08/2014/HCOOH-em-anthro_CMIP_CEDS_2014.nc
HEMCO: Opening /fsx/HEMCO/C2H6_2010/v2017-05/C2H6_global_anth_biof.201001.nc
HEMCO: Opening /fsx/HEMCO/NEI2011/v2017-02-MM/01/NEI11_0.1x0.1_201101_monmean.nc
HEMCO: Opening /fsx/HEMCO/NEI2011/v2017-02-MM/01/NEI11_0.1x0.1_201101_monmean_egu.nc
HEMCO: Opening /fsx/HEMCO/NEI2011/v2017-02-MM/01/NEI11_0.1x0.1_201101_monmean_egupk.nc
HEMCO: Opening /fsx/HEMCO/NEI2011/v2017-02-MM/01/NEI11_0.1x0.1_201101_monmean_oilgas.nc
HEMCO: Opening /fsx/HEMCO/NEI2011/v2017-02-MM/01/NEI11_0.1x0.1_201101_monmean_othpt.nc
HEMCO: Opening /fsx/HEMCO/NEI2011/v2017-02-MM/01/NEI11_0.1x0.1_201101_monmean_ptnonipm.nc
HEMCO: Opening /fsx/HEMCO/IODINE/v2017-09/CH3I_monthly_emissions_Ordonez_2012_COARDS.nc
HEMCO: Opening /fsx/HEMCO/IODINE/v2017-09/CH2I2_monthly_emissions_Ordonez_2012_COARDS.nc
HEMCO: Opening /fsx/HEMCO/IODINE/v2017-09/CH2ICl_monthly_emissions_Ordonez_2012_COARDS.nc
HEMCO: Opening /fsx/HEMCO/IODINE/v2017-09/CH2IBr_monthly_emissions_Ordonez_2012_COARDS.nc
HEMCO: Opening /fsx/HEMCO/CEDS/v2018-08/2014/CO-em-anthro_CMIP_CEDS_2014.nc
HEMCO: Opening /fsx/HEMCO/CEDS/v2018-08/2014/SO2-em-anthro_CMIP_CEDS_2014.nc
HEMCO: Opening /fsx/HEMCO/CEDS/v2018-08/2014/NH3-em-anthro_CMIP_CEDS_2014.nc
HEMCO: Opening /fsx/HEMCO/CEDS/v2018-08/2014/BC-em-anthro_CMIP_CEDS_2014.nc
HEMCO: Opening /fsx/HEMCO/CEDS/v2018-08/2014/OC-em-anthro_CMIP_CEDS_2014.nc
HEMCO: Opening /fsx/HEMCO/CEDS/v2018-08/2014/EOH-em-anthro_CMIP_CEDS_2014.nc
HEMCO: Opening /fsx/HEMCO/CEDS/v2018-08/2014/C2H6-em-anthro_CMIP_CEDS_2014.nc
HEMCO: Opening /fsx/HEMCO/CEDS/v2018-08/2014/C3H8-em-anthro_CMIP_CEDS_2014.nc
HEMCO: Opening /fsx/HEMCO/CEDS/v2018-08/2014/ALK4_butanes-em-anthro_CMIP_CEDS_2014.nc
HEMCO: Opening /fsx/HEMCO/CEDS/v2018-08/2014/ALK4_pentanes-em-anthro_CMIP_CEDS_2014.nc
HEMCO: Opening /fsx/HEMCO/CEDS/v2018-08/2014/ALK4_hexanes-em-anthro_CMIP_CEDS_2014.nc
HEMCO: Opening /fsx/HEMCO/CEDS/v2018-08/2014/PRPE-em-anthro_CMIP_CEDS_2014.nc
HEMCO: Opening /fsx/HEMCO/CEDS/v2018-08/2014/BENZ-em-anthro_CMIP_CEDS_2014.nc
HEMCO: Opening /fsx/HEMCO/CEDS/v2018-08/2014/TOLU-em-anthro_CMIP_CEDS_2014.nc
HEMCO: Opening /fsx/HEMCO/CEDS/v2018-08/2014/XYLE-em-anthro_CMIP_CEDS_2014.nc
HEMCO: Opening /fsx/HEMCO/CEDS/v2018-08/2014/CH2O-em-anthro_CMIP_CEDS_2014.nc
HEMCO: Opening /fsx/HEMCO/CEDS/v2018-08/2014/ALD2-em-anthro_CMIP_CEDS_2014.nc
HEMCO: Opening /fsx/HEMCO/CEDS/v2018-08/2014/MEK-em-anthro_CMIP_CEDS_2014.nc
HEMCO: Opening /fsx/HEMCO/CEDS/v2018-08/2014/HCOOH-em-anthro_CMIP_CEDS_2014.nc
HEMCO: Opening /fsx/HEMCO/CEDS/v2018-08/2014/NO-em-anthro_CMIP_CEDS_2014.nc
HEMCO: Opening /fsx/HEMCO/AEIC/v2015-01/AEIC.47L.gen.1x1.nc
HEMCO: Opening /fsx/HEMCO/ALD2/v2017-03/resp.geos.2x25.nc
HEMCO: Opening /fsx/HEMCO/DMS/v2015-07/DMS_lana.geos.1x1.nc
HEMCO: Opening /fsx/HEMCO/ALD2/v2017-03/ALD2_seawater.geos.2x25.nc
HEMCO: Opening /fsx/HEMCO/DUST_DEAD/v2014-07/dst_tvbds.geos.4x5.nc
HEMCO: Opening /fsx/HEMCO/DUST_DEAD/v2018-04/PM25FINE_ECLIPSE_2015.geos.2x25.nc
HEMCO: Opening /fsx/HEMCO/SOA/v2014-07/NVOC.geos.1x1.nc
HEMCO: Opening /fsx/HEMCO/GFED4/v2015-10/2016/GFED4_gen.025x025.201601.nc
HEMCO: Opening /fsx/HEMCO/UVALBEDO/v2015-03/uvalbedo.geos.2x25.nc
HEMCO: Opening /fsx/HEMCO/GMI/v2015-02/gmi.clim.ACET.geos5.2x25.nc
HEMCO: Opening /fsx/HEMCO/GMI/v2015-02/gmi.clim.ACTA.geos5.2x25.nc
HEMCO: Opening /fsx/HEMCO/GMI/v2015-02/gmi.clim.ALD2.geos5.2x25.nc
HEMCO: Opening /fsx/HEMCO/GMI/v2015-02/gmi.clim.ALK4.geos5.2x25.nc
HEMCO: Opening /fsx/HEMCO/GMI/v2015-02/gmi.clim.C2H6.geos5.2x25.nc
HEMCO: Opening /fsx/HEMCO/GMI/v2015-02/gmi.clim.C3H8.geos5.2x25.nc
HEMCO: Opening /fsx/HEMCO/GMI/v2015-02/gmi.clim.CCl4.geos5.2x25.nc
HEMCO: Opening /fsx/HEMCO/GMI/v2015-02/gmi.clim.CF2Cl2.geos5.2x25.nc
HEMCO: Opening /fsx/HEMCO/GMI/v2015-02/gmi.clim.CF2ClBr.geos5.2x25.nc
HEMCO: Opening /fsx/HEMCO/GMI/v2015-02/gmi.clim.CFC113.geos5.2x25.nc
HEMCO: Opening /fsx/HEMCO/GMI/v2015-02/gmi.clim.CFC114.geos5.2x25.nc
HEMCO: Opening /fsx/HEMCO/GMI/v2015-02/gmi.clim.CFC115.geos5.2x25.nc
HEMCO: Opening /fsx/HEMCO/GMI/v2015-02/gmi.clim.CFCl3.geos5.2x25.nc
HEMCO: Opening /fsx/HEMCO/GMI/v2015-02/gmi.clim.CH2O.geos5.2x25.nc
HEMCO: Opening /fsx/HEMCO/GMI/v2015-02/gmi.clim.CH3CCl3.geos5.2x25.nc
HEMCO: Opening /fsx/HEMCO/GMI/v2015-02/gmi.clim.CH3Cl.geos5.2x25.nc
HEMCO: Opening /fsx/HEMCO/GMI/v2015-02/gmi.clim.CH4.geos5.2x25.nc
HEMCO: Opening /fsx/HEMCO/GMI/v2015-02/gmi.clim.CO.geos5.2x25.nc
HEMCO: Opening /fsx/HEMCO/GMI/v2015-02/gmi.clim.Cl.geos5.2x25.nc
HEMCO: Opening /fsx/HEMCO/GMI/v2015-02/gmi.clim.Cl2.geos5.2x25.nc
HEMCO: Opening /fsx/HEMCO/GMI/v2015-02/gmi.clim.Cl2O2.geos5.2x25.nc
HEMCO: Opening /fsx/HEMCO/GMI/v2015-02/gmi.clim.ClO.geos5.2x25.nc
HEMCO: Opening /fsx/HEMCO/GMI/v2015-02/gmi.clim.EOH.geos5.2x25.nc
HEMCO: Opening /fsx/HEMCO/GMI/v2015-02/gmi.clim.GLYC.geos5.2x25.nc
HEMCO: Opening /fsx/HEMCO/GMI/v2015-02/gmi.clim.GLYX.geos5.2x25.nc
HEMCO: Opening /fsx/HEMCO/GMI/v2015-02/gmi.clim.H2402.geos5.2x25.nc
HEMCO: Opening /fsx/HEMCO/GMI/v2015-02/gmi.clim.H2O.geos5.2x25.nc
HEMCO: Opening /fsx/HEMCO/GMI/v2015-02/gmi.clim.H2O2.geos5.2x25.nc
HEMCO: Opening /fsx/HEMCO/GMI/v2015-02/gmi.clim.HAC.geos5.2x25.nc
HEMCO: Opening /fsx/HEMCO/GMI/v2015-02/gmi.clim.HCFC141b.geos5.2x25.nc
HEMCO: Opening /fsx/HEMCO/GMI/v2015-02/gmi.clim.HCFC142b.geos5.2x25.nc
HEMCO: Opening /fsx/HEMCO/GMI/v2015-02/gmi.clim.HCFC22.geos5.2x25.nc
HEMCO: Opening /fsx/HEMCO/GMI/v2015-02/gmi.clim.HCOOH.geos5.2x25.20170108.nc
HEMCO: Opening /fsx/HEMCO/GMI/v2015-02/gmi.clim.HCl.geos5.2x25.nc
HEMCO: Opening /fsx/HEMCO/GMI/v2015-02/gmi.clim.HNO2.geos5.2x25.nc
HEMCO: Opening /fsx/HEMCO/GMI/v2015-02/gmi.clim.HNO3.geos5.2x25.nc
HEMCO: Opening /fsx/HEMCO/GMI/v2015-02/gmi.clim.HNO4.geos5.2x25.nc
HEMCO: Opening /fsx/HEMCO/GMI/v2015-02/gmi.clim.HOCl.geos5.2x25.nc
HEMCO: Opening /fsx/HEMCO/GMI/v2015-02/gmi.clim.ISN1.geos5.2x25.nc
HEMCO: Opening /fsx/HEMCO/GMI/v2015-02/gmi.clim.ISOP.geos5.2x25.nc
HEMCO: Opening /fsx/HEMCO/GMI/v2015-02/gmi.clim.MACR.geos5.2x25.nc
HEMCO: Opening /fsx/HEMCO/GMI/v2015-02/gmi.clim.MAP.geos5.2x25.nc
HEMCO: Opening /fsx/HEMCO/GMI/v2015-02/gmi.clim.MEK.geos5.2x25.nc
HEMCO: Opening /fsx/HEMCO/GMI/v2015-02/gmi.clim.MGLY.geos5.2x25.nc
HEMCO: Opening /fsx/HEMCO/GMI/v2015-02/gmi.clim.MP.geos5.2x25.nc
HEMCO: Opening /fsx/HEMCO/GMI/v2015-02/gmi.clim.MVK.geos5.2x25.nc
HEMCO: Opening /fsx/HEMCO/GMI/v2015-02/gmi.clim.N2O.geos5.2x25.nc
HEMCO: Opening /fsx/HEMCO/GMI/v2015-02/gmi.clim.N2O5.geos5.2x25.nc
HEMCO: Opening /fsx/HEMCO/GMI/v2015-02/gmi.clim.NO.geos5.2x25.nc
HEMCO: Opening /fsx/HEMCO/GMI/v2015-02/gmi.clim.NO2.geos5.2x25.nc
HEMCO: Opening /fsx/HEMCO/GMI/v2015-02/gmi.clim.NO3.geos5.2x25.nc
HEMCO: Opening /fsx/HEMCO/GMI/v2015-02/gmi.clim.O3.geos5.2x25.nc
HEMCO: Opening /fsx/HEMCO/GMI/v2015-02/gmi.clim.OClO.geos5.2x25.nc
HEMCO: Opening /fsx/HEMCO/GMI/v2015-02/gmi.clim.PAN.geos5.2x25.nc
HEMCO: Opening /fsx/HEMCO/GMI/v2015-02/gmi.clim.NPMN.geos5.2x25.nc
HEMCO: Opening /fsx/HEMCO/GMI/v2015-02/gmi.clim.IPMN.geos5.2x25.nc
HEMCO: Opening /fsx/HEMCO/GMI/v2015-02/gmi.clim.PPN.geos5.2x25.nc
HEMCO: Opening /fsx/HEMCO/GMI/v2015-02/gmi.clim.PRPE.geos5.2x25.nc
HEMCO: Opening /fsx/HEMCO/GMI/v2015-02/gmi.clim.R4N2.geos5.2x25.nc
HEMCO: Opening /fsx/HEMCO/GMI/v2015-02/gmi.clim.RCHO.geos5.2x25.nc
HEMCO: Opening /fsx/HEMCO/GMI/v2015-02/gmi.clim.RIPA.geos5.2x25.nc
HEMCO: Opening /fsx/HEMCO/GMI/v2015-02/gmi.clim.RIPB.geos5.2x25.nc
HEMCO: Opening /fsx/HEMCO/GMI/v2015-02/gmi.clim.RIPD.geos5.2x25.nc
HEMCO: Opening /fsx/HEMCO/GMI/v2015-02/gmi.clim.OH.geos5.2x25.nc
HEMCO: Opening /fsx/HEMCO/NOAA_GMD/v2018-01/monthly.gridded.surface.methane.1979-2020.1x1.nc
HEMCO: Opening /fsx/HEMCO/GEIA/v2014-07/GEIA_monthscal.generic.1x1.nc
HEMCO: Opening /fsx/HEMCO/EMEP/v2015-03/EMEP.Seasonal.geos.1x1.nc
HEMCO: Opening /fsx/HEMCO/BROMINE/v2015-02/BromoCarb_Season.nc
HEMCO: Opening /fsx/HEMCO/EDGARv43/v2016-11/EDGAR_v43.Seasonal.1x1.nc
HEMCO: Opening /fsx/HEMCO/NEI2005/v2014-09/scaling/NEI99.dow.geos.1x1.nc
HEMCO: Opening /fsx/HEMCO/VOLCANO/v2015-02/2009/volc_so2_gen.1x1.47L.200901.nc
HEMCO: Opening /fsx/HEMCO/SOILNOX/v2014-07/soilNOx.fert_res.generic.05x05.nc
 vdinti: pbl height will be limited to bottom           25  model levels. top is
     431.250100000000       hpa
 =================================================
 W R F - G C   T I M E R S
    Domain           1 (Units: s)
 =================================================
  => Coupler Component                       0.057
   -- Physics & Parameterization             0.009
   -- Diagnostics Out                        0.000
  => GEOS-Chem Column                      136.937
  ===> Total Chemistry                     136.994
  => WRF                                    17.454
  ===> Total WRF-GC                        154.447
 max optd  1.9364301E+31
 max taucldi  1.5605600E-08
 max taucldw  1.8909185E-08
 Switching is not necessary as we are already
 in the right domain!
 GIGC_Chunk_Run: Running for in-PET grid #           1
 GIGC_Chunk_Run: Received new grid IM, JM, LM =          15           9
          49
 =================================================
 W R F - G C   T I M E R S
    Domain           1 (Units: s)
 =================================================
  => Coupler Component                       0.090
   -- Physics & Parameterization             0.018
   -- Diagnostics Out                        0.000
  => GEOS-Chem Column                      138.024
  ===> Total Chemistry                     138.113
  => WRF                                    54.118
  ===> Total WRF-GC                        192.231
 max optd  1.9364301E+31
 max taucldi  6.7771378E-04
 max taucldw  3.5445570E-08
 Switching is not necessary as we are already
 in the right domain!
 GIGC_Chunk_Run: Running for in-PET grid #           1
 GIGC_Chunk_Run: Received new grid IM, JM, LM =          15           9
          49
 =================================================
 W R F - G C   T I M E R S
    Domain           1 (Units: s)
 =================================================
  => Coupler Component                       0.124
   -- Physics & Parameterization             0.027
   -- Diagnostics Out                        0.000
  => GEOS-Chem Column                      139.061
  ===> Total Chemistry                     139.186
  => WRF                                    74.873
  ===> Total WRF-GC                        214.059
 max optd  1.9364301E+31
 max taucldi  2.2156218E-03
 max taucldw  4.9849739E-08
 Switching is not necessary as we are already
 in the right domain!
 GIGC_Chunk_Run: Running for in-PET grid #           1
 GIGC_Chunk_Run: Received new grid IM, JM, LM =          15           9
          49
 =================================================
 W R F - G C   T I M E R S
    Domain           1 (Units: s)
 =================================================
  => Coupler Component                       0.156
   -- Physics & Parameterization             0.035
   -- Diagnostics Out                        0.000
  => GEOS-Chem Column                      140.093
  ===> Total Chemistry                     140.249
  => WRF                                    93.935
  ===> Total WRF-GC                        234.184
 max optd  1.9364301E+31
 max taucldi  4.0784031E-03
 max taucldw  6.2036719E-08
 Switching is not necessary as we are already
 in the right domain!
 GIGC_Chunk_Run: Running for in-PET grid #           1
 GIGC_Chunk_Run: Received new grid IM, JM, LM =          15           9
          49
 =================================================
 W R F - G C   T I M E R S
    Domain           1 (Units: s)
 =================================================
  => Coupler Component                       0.190
   -- Physics & Parameterization             0.044
   -- Diagnostics Out                        0.000
  => GEOS-Chem Column                      141.120
  ===> Total Chemistry                     141.310
  => WRF                                   112.535
  ===> Total WRF-GC                        253.845
 max optd  1.9364301E+31
 max taucldi  6.4386567E-03
 max taucldw  7.1185880E-08
 Switching is not necessary as we are already
 in the right domain!
 GIGC_Chunk_Run: Running for in-PET grid #           1
 GIGC_Chunk_Run: Received new grid IM, JM, LM =          15           9
          49
 =================================================
 W R F - G C   T I M E R S
    Domain           1 (Units: s)
 =================================================
  => Coupler Component                       0.224
   -- Physics & Parameterization             0.053
   -- Diagnostics Out                        0.000
  => GEOS-Chem Column                      142.158
  ===> Total Chemistry                     142.382
  => WRF                                   131.019
  ===> Total WRF-GC                        273.401
 max optd  1.9364301E+31
 max taucldi  9.0684425E-03
 max taucldw  7.7288824E-08
 Switching is not necessary as we are already
 in the right domain!
 GIGC_Chunk_Run: Running for in-PET grid #           1
 GIGC_Chunk_Run: Received new grid IM, JM, LM =          15           9
          49
 =================================================
 W R F - G C   T I M E R S
    Domain           1 (Units: s)
 =================================================
  => Coupler Component                       0.258
   -- Physics & Parameterization             0.062
   -- Diagnostics Out                        0.000
  => GEOS-Chem Column                      143.186
  ===> Total Chemistry                     143.444
  => WRF                                   149.487
  ===> Total WRF-GC                        292.931
 max optd  1.9364301E+31
 max taucldi  1.1128999E-02
 max taucldw  8.1443218E-08
 Switching is not necessary as we are already
 in the right domain!
 GIGC_Chunk_Run: Running for in-PET grid #           1
 GIGC_Chunk_Run: Received new grid IM, JM, LM =          15           9
          49
 =================================================
 W R F - G C   T I M E R S
    Domain           1 (Units: s)
 =================================================
  => Coupler Component                       0.289
   -- Physics & Parameterization             0.071
   -- Diagnostics Out                        0.000
  => GEOS-Chem Column                      144.213
  ===> Total Chemistry                     144.503
  => WRF                                   167.887
  ===> Total WRF-GC                        312.389
 max optd  1.9364301E+31
 max taucldi  1.2972520E-02
 max taucldw  9.1493435E-02
 Switching is not necessary as we are already
 in the right domain!
 GIGC_Chunk_Run: Running for in-PET grid #           1
 GIGC_Chunk_Run: Received new grid IM, JM, LM =          15           9
          49
 =================================================
 W R F - G C   T I M E R S
    Domain           1 (Units: s)
 =================================================
  => Coupler Component                       0.323
   -- Physics & Parameterization             0.079
   -- Diagnostics Out                        0.000
  => GEOS-Chem Column                      145.247
  ===> Total Chemistry                     145.570
  => WRF                                   186.297
  ===> Total WRF-GC                        331.867
 max optd  1.9364301E+31
 max taucldi  1.5650010E-02
 max taucldw  0.4819010    
 Switching is not necessary as we are already
 in the right domain!
 GIGC_Chunk_Run: Running for in-PET grid #           1
 GIGC_Chunk_Run: Received new grid IM, JM, LM =          15           9
          49
 =================================================
 W R F - G C   T I M E R S
    Domain           1 (Units: s)
 =================================================
  => Coupler Component                       0.357
   -- Physics & Parameterization             0.088
   -- Diagnostics Out                        0.000
  => GEOS-Chem Column                      146.282
  ===> Total Chemistry                     146.639
  => WRF                                   204.756
  ===> Total WRF-GC                        351.395
 max optd  1.9364301E+31
 max taucldi  2.0529464E-02
 max taucldw  0.6564576    
 Switching is not necessary as we are already
 in the right domain!
 GIGC_Chunk_Run: Running for in-PET grid #           1
 GIGC_Chunk_Run: Received new grid IM, JM, LM =          15           9
          49
 =================================================
 W R F - G C   T I M E R S
    Domain           1 (Units: s)
 =================================================
  => Coupler Component                       0.390
   -- Physics & Parameterization             0.096
   -- Diagnostics Out                        0.000
  => GEOS-Chem Column                      147.315
  ===> Total Chemistry                     147.705
  => WRF                                   223.136
  ===> Total WRF-GC                        370.842
 max optd  1.9364301E+31
 max taucldi  3.0351689E-02
 max taucldw  0.8966482    
 Switching is not necessary as we are already
 in the right domain!
 GIGC_Chunk_Run: Running for in-PET grid #           1
 GIGC_Chunk_Run: Received new grid IM, JM, LM =          15           9
          49
 =================================================
 W R F - G C   T I M E R S
    Domain           1 (Units: s)
 =================================================
  => Coupler Component                       0.422
   -- Physics & Parameterization             0.105
   -- Diagnostics Out                        0.000
  => GEOS-Chem Column                      148.350
  ===> Total Chemistry                     148.772
  => WRF                                   241.400
  ===> Total WRF-GC                        390.172
 HOURLY EMISSIONS UPDATE TIME     3600.0       0.0
mediation_integrate: med_read_wrf_chem_emissions: Read emissions for time 2018-01-01_01:00:00
 max optd  1.9364301E+31
 max taucldi  4.6613228E-02
 max taucldw   1.112357    
 Switching is not necessary as we are already
 in the right domain!
 GIGC_Chunk_Run: Running for in-PET grid #           1
 GIGC_Chunk_Run: Received new grid IM, JM, LM =          15           9
          49
 =================================================
 W R F - G C   T I M E R S
    Domain           1 (Units: s)
 =================================================
  => Coupler Component                       0.452
   -- Physics & Parameterization             0.114
   -- Diagnostics Out                        0.000
  => GEOS-Chem Column                      149.386
  ===> Total Chemistry                     149.838
  => WRF                                   259.745
  ===> Total WRF-GC                        409.583
 max optd  1.9364301E+31
 max taucldi  6.1475284E-02
 max taucldw   1.261026    
 Switching is not necessary as we are already
 in the right domain!
 GIGC_Chunk_Run: Running for in-PET grid #           1
 GIGC_Chunk_Run: Received new grid IM, JM, LM =          15           9
          49
 =================================================
 W R F - G C   T I M E R S
    Domain           1 (Units: s)
 =================================================
  => Coupler Component                       0.486
   -- Physics & Parameterization             0.123
   -- Diagnostics Out                        0.000
  => GEOS-Chem Column                      150.416
  ===> Total Chemistry                     150.902
  => WRF                                   278.079
  ===> Total WRF-GC                        428.981
 max optd  1.9364301E+31
 max taucldi  7.9259083E-02
 max taucldw   1.241562    
 Switching is not necessary as we are already
 in the right domain!
 GIGC_Chunk_Run: Running for in-PET grid #           1
 GIGC_Chunk_Run: Received new grid IM, JM, LM =          15           9
          49
 =================================================
 W R F - G C   T I M E R S
    Domain           1 (Units: s)
 =================================================
  => Coupler Component                       0.523
   -- Physics & Parameterization             0.132
   -- Diagnostics Out                        0.000
  => GEOS-Chem Column                      151.440
  ===> Total Chemistry                     151.962
  => WRF                                   296.306
  ===> Total WRF-GC                        448.269
 max optd  1.9364301E+31
 max taucldi  8.4350981E-02
 max taucldw   1.151664    
 Switching is not necessary as we are already
 in the right domain!
 GIGC_Chunk_Run: Running for in-PET grid #           1
 GIGC_Chunk_Run: Received new grid IM, JM, LM =          15           9
          49
 =================================================
 W R F - G C   T I M E R S
    Domain           1 (Units: s)
 =================================================
  => Coupler Component                       0.555
   -- Physics & Parameterization             0.141
   -- Diagnostics Out                        0.000
  => GEOS-Chem Column                      152.472
  ===> Total Chemistry                     153.027
  => WRF                                   314.607
  ===> Total WRF-GC                        467.634
 max optd  1.9364301E+31
 max taucldi  8.7600611E-02
 max taucldw   1.073386    
 Switching is not necessary as we are already
 in the right domain!
 GIGC_Chunk_Run: Running for in-PET grid #           1
 GIGC_Chunk_Run: Received new grid IM, JM, LM =          15           9
          49
 =================================================
 W R F - G C   T I M E R S
    Domain           1 (Units: s)
 =================================================
  => Coupler Component                       0.586
   -- Physics & Parameterization             0.149
   -- Diagnostics Out                        0.000
  => GEOS-Chem Column                      153.503
  ===> Total Chemistry                     154.089
  => WRF                                   332.866
  ===> Total WRF-GC                        486.955
 max optd  1.9364301E+31
 max taucldi  8.7609991E-02
 max taucldw  0.9713184    
 Switching is not necessary as we are already
 in the right domain!
 GIGC_Chunk_Run: Running for in-PET grid #           1
 GIGC_Chunk_Run: Received new grid IM, JM, LM =          15           9
          49
 =================================================
 W R F - G C   T I M E R S
    Domain           1 (Units: s)
 =================================================
  => Coupler Component                       0.618
   -- Physics & Parameterization             0.158
   -- Diagnostics Out                        0.000
  => GEOS-Chem Column                      154.523
  ===> Total Chemistry                     155.142
  => WRF                                   351.091
  ===> Total WRF-GC                        506.233
 max optd  1.9364301E+31
 max taucldi  8.6357683E-02
 max taucldw  0.9780314    
 Switching is not necessary as we are already
 in the right domain!
 GIGC_Chunk_Run: Running for in-PET grid #           1
 GIGC_Chunk_Run: Received new grid IM, JM, LM =          15           9
          49
 =================================================
 W R F - G C   T I M E R S
    Domain           1 (Units: s)
 =================================================
  => Coupler Component                       0.654
   -- Physics & Parameterization             0.167
   -- Diagnostics Out                        0.000
  => GEOS-Chem Column                      155.559
  ===> Total Chemistry                     156.212
  => WRF                                   369.378
  ===> Total WRF-GC                        525.590
 max optd  1.9364301E+31
 max taucldi  8.1387863E-02
 max taucldw   1.031886    
 Switching is not necessary as we are already
 in the right domain!
 GIGC_Chunk_Run: Running for in-PET grid #           1
 GIGC_Chunk_Run: Received new grid IM, JM, LM =          15           9
          49
 =================================================
 W R F - G C   T I M E R S
    Domain           1 (Units: s)
 =================================================
  => Coupler Component                       0.687
   -- Physics & Parameterization             0.176
   -- Diagnostics Out                        0.000
  => GEOS-Chem Column                      156.588
  ===> Total Chemistry                     157.275
  => WRF                                   387.757
  ===> Total WRF-GC                        545.031
 max optd  1.9364301E+31
 max taucldi  7.7579893E-02
 max taucldw  0.9904387    
 Switching is not necessary as we are already
 in the right domain!
 GIGC_Chunk_Run: Running for in-PET grid #           1
 GIGC_Chunk_Run: Received new grid IM, JM, LM =          15           9
          49
 =================================================
 W R F - G C   T I M E R S
    Domain           1 (Units: s)
 =================================================
  => Coupler Component                       0.717
   -- Physics & Parameterization             0.185
   -- Diagnostics Out                        0.000
  => GEOS-Chem Column                      157.601
  ===> Total Chemistry                     158.318
  => WRF                                   405.919
  ===> Total WRF-GC                        564.237
 max optd  1.9364301E+31
 max taucldi  7.6965891E-02
 max taucldw  0.9240910    
 Switching is not necessary as we are already
 in the right domain!
 GIGC_Chunk_Run: Running for in-PET grid #           1
 GIGC_Chunk_Run: Received new grid IM, JM, LM =          15           9
          49
 =================================================
 W R F - G C   T I M E R S
    Domain           1 (Units: s)
 =================================================
  => Coupler Component                       0.751
   -- Physics & Parameterization             0.194
   -- Diagnostics Out                        0.000
  => GEOS-Chem Column                      158.640
  ===> Total Chemistry                     159.391
  => WRF                                   424.112
  ===> Total WRF-GC                        583.503
 max optd  1.9364301E+31
 max taucldi  7.7931687E-02
 max taucldw  0.8348665    
 Switching is not necessary as we are already
 in the right domain!
 GIGC_Chunk_Run: Running for in-PET grid #           1
 GIGC_Chunk_Run: Received new grid IM, JM, LM =          15           9
          49
 =================================================
 W R F - G C   T I M E R S
    Domain           1 (Units: s)
 =================================================
  => Coupler Component                       0.782
   -- Physics & Parameterization             0.203
   -- Diagnostics Out                        0.000
  => GEOS-Chem Column                      159.670
  ===> Total Chemistry                     160.451
  => WRF                                   442.424
  ===> Total WRF-GC                        602.875
 max optd  1.9364301E+31
 max taucldi  7.7583209E-02
 max taucldw  0.9036380    
 Switching is not necessary as we are already
 in the right domain!
 GIGC_Chunk_Run: Running for in-PET grid #           1
 GIGC_Chunk_Run: Received new grid IM, JM, LM =          15           9
          49
 =================================================
 W R F - G C   T I M E R S
    Domain           1 (Units: s)
 =================================================
  => Coupler Component                       0.822
   -- Physics & Parameterization             0.212
   -- Diagnostics Out                        0.000
  => GEOS-Chem Column                      160.684
  ===> Total Chemistry                     161.506
  => WRF                                   460.629
  ===> Total WRF-GC                        622.134
 HOURLY EMISSIONS UPDATE TIME     7200.0       0.0
mediation_integrate: med_read_wrf_chem_emissions: Read emissions for time 2018-01-01_02:00:00
 max optd  1.9364301E+31
 max taucldi  7.7475607E-02
 max taucldw  0.9076609    
 Switching is not necessary as we are already
 in the right domain!
 GIGC_Chunk_Run: Running for in-PET grid #           1
 GIGC_Chunk_Run: Received new grid IM, JM, LM =          15           9
          49
 =================================================
 W R F - G C   T I M E R S
    Domain           1 (Units: s)
 =================================================
  => Coupler Component                       0.856
   -- Physics & Parameterization             0.221
   -- Diagnostics Out                        0.000
  => GEOS-Chem Column                      161.707
  ===> Total Chemistry                     162.563
  => WRF                                   478.877
  ===> Total WRF-GC                        641.440
 max optd  1.9364301E+31
 max taucldi  7.8107499E-02
 max taucldw  0.8972536    
 Switching is not necessary as we are already
 in the right domain!
 GIGC_Chunk_Run: Running for in-PET grid #           1
 GIGC_Chunk_Run: Received new grid IM, JM, LM =          15           9
          49
 =================================================
 W R F - G C   T I M E R S
    Domain           1 (Units: s)
 =================================================
  => Coupler Component                       0.886
   -- Physics & Parameterization             0.229
   -- Diagnostics Out                        0.000
  => GEOS-Chem Column                      162.720
  ===> Total Chemistry                     163.606
  => WRF                                   497.154
  ===> Total WRF-GC                        660.761
 max optd  1.9364301E+31
 max taucldi  7.7795066E-02
 max taucldw  0.8406086    
 Switching is not necessary as we are already
 in the right domain!
 GIGC_Chunk_Run: Running for in-PET grid #           1
 GIGC_Chunk_Run: Received new grid IM, JM, LM =          15           9
          49
 =================================================
 W R F - G C   T I M E R S
    Domain           1 (Units: s)
 =================================================
  => Coupler Component                       0.918
   -- Physics & Parameterization             0.238
   -- Diagnostics Out                        0.000
  => GEOS-Chem Column                      163.768
  ===> Total Chemistry                     164.686
  => WRF                                   515.307
  ===> Total WRF-GC                        679.993
 max optd  1.9364301E+31
 max taucldi  7.9338253E-02
 max taucldw  0.8196074    
 Switching is not necessary as we are already
 in the right domain!
 GIGC_Chunk_Run: Running for in-PET grid #           1
 GIGC_Chunk_Run: Received new grid IM, JM, LM =          15           9
          49
 =================================================
 W R F - G C   T I M E R S
    Domain           1 (Units: s)
 =================================================
  => Coupler Component                       0.950
   -- Physics & Parameterization             0.247
   -- Diagnostics Out                        0.000
  => GEOS-Chem Column                      164.819
  ===> Total Chemistry                     165.770
  => WRF                                   533.419
  ===> Total WRF-GC                        699.188
 max optd  1.9364301E+31
 max taucldi  7.8623921E-02
 max taucldw  0.8200247    
 Switching is not necessary as we are already
 in the right domain!
 GIGC_Chunk_Run: Running for in-PET grid #           1
 GIGC_Chunk_Run: Received new grid IM, JM, LM =          15           9
          49
 =================================================
 W R F - G C   T I M E R S
    Domain           1 (Units: s)
 =================================================
  => Coupler Component                       0.983
   -- Physics & Parameterization             0.256
   -- Diagnostics Out                        0.000
  => GEOS-Chem Column                      165.843
  ===> Total Chemistry                     166.826
  => WRF                                   551.571
  ===> Total WRF-GC                        718.397
 max optd  1.9364301E+31
 max taucldi  7.8991421E-02
 max taucldw  0.8269621    
 Switching is not necessary as we are already
 in the right domain!
 GIGC_Chunk_Run: Running for in-PET grid #           1
 GIGC_Chunk_Run: Received new grid IM, JM, LM =          15           9
          49
 =================================================
 W R F - G C   T I M E R S
    Domain           1 (Units: s)
 =================================================
  => Coupler Component                       1.018
   -- Physics & Parameterization             0.264
   -- Diagnostics Out                        0.000
  => GEOS-Chem Column                      166.875
  ===> Total Chemistry                     167.894
  => WRF                                   569.744
  ===> Total WRF-GC                        737.637
 max optd  1.9364301E+31
 max taucldi  7.7829026E-02
 max taucldw  0.7360510    
 Switching is not necessary as we are already
 in the right domain!
 GIGC_Chunk_Run: Running for in-PET grid #           1
 GIGC_Chunk_Run: Received new grid IM, JM, LM =          15           9
          49
 =================================================
 W R F - G C   T I M E R S
    Domain           1 (Units: s)
 =================================================
  => Coupler Component                       1.049
   -- Physics & Parameterization             0.273
   -- Diagnostics Out                        0.000
  => GEOS-Chem Column                      167.891
  ===> Total Chemistry                     168.941
  => WRF                                   587.938
  ===> Total WRF-GC                        756.878
 max optd  1.9364301E+31
 max taucldi  7.5892031E-02
 max taucldw  0.6632481    
 Switching is not necessary as we are already
 in the right domain!
 GIGC_Chunk_Run: Running for in-PET grid #           1
 GIGC_Chunk_Run: Received new grid IM, JM, LM =          15           9
          49
 =================================================
 W R F - G C   T I M E R S
    Domain           1 (Units: s)
 =================================================
  => Coupler Component                       1.084
   -- Physics & Parameterization             0.282
   -- Diagnostics Out                        0.000
  => GEOS-Chem Column                      168.918
  ===> Total Chemistry                     170.002
  => WRF                                   606.046
  ===> Total WRF-GC                        776.048
 max optd  1.9364301E+31
 max taucldi  7.5643763E-02
 max taucldw  0.6734552    
 Switching is not necessary as we are already
 in the right domain!
 GIGC_Chunk_Run: Running for in-PET grid #           1
 GIGC_Chunk_Run: Received new grid IM, JM, LM =          15           9
          49
 =================================================
 W R F - G C   T I M E R S
    Domain           1 (Units: s)
 =================================================
  => Coupler Component                       1.116
   -- Physics & Parameterization             0.291
   -- Diagnostics Out                        0.000
  => GEOS-Chem Column                      169.950
  ===> Total Chemistry                     171.066
  => WRF                                   624.166
  ===> Total WRF-GC                        795.232
 max optd  1.9364301E+31
 max taucldi  7.5719327E-02
 max taucldw  0.7161527    
 Switching is not necessary as we are already
 in the right domain!
 GIGC_Chunk_Run: Running for in-PET grid #           1
 GIGC_Chunk_Run: Received new grid IM, JM, LM =          15           9
          49
 =================================================
 W R F - G C   T I M E R S
    Domain           1 (Units: s)
 =================================================
  => Coupler Component                       1.149
   -- Physics & Parameterization             0.299
   -- Diagnostics Out                        0.000
  => GEOS-Chem Column                      170.968
  ===> Total Chemistry                     172.117
  => WRF                                   642.355
  ===> Total WRF-GC                        814.471
 max optd  1.9364301E+31
 max taucldi  7.5308792E-02
 max taucldw  0.6785830    
 Switching is not necessary as we are already
 in the right domain!
 GIGC_Chunk_Run: Running for in-PET grid #           1
 GIGC_Chunk_Run: Received new grid IM, JM, LM =          15           9
          49
 =================================================
 W R F - G C   T I M E R S
    Domain           1 (Units: s)
 =================================================
  => Coupler Component                       1.182
   -- Physics & Parameterization             0.308
   -- Diagnostics Out                        0.000
  => GEOS-Chem Column                      171.988
  ===> Total Chemistry                     173.169
  => WRF                                   660.455
  ===> Total WRF-GC                        833.624
 max optd  1.9364301E+31
 max taucldi  7.4668795E-02
 max taucldw  0.6890550    
 Switching is not necessary as we are already
 in the right domain!
 GIGC_Chunk_Run: Running for in-PET grid #           1
 GIGC_Chunk_Run: Received new grid IM, JM, LM =          15           9
          49
 =================================================
 W R F - G C   T I M E R S
    Domain           1 (Units: s)
 =================================================
  => Coupler Component                       1.214
   -- Physics & Parameterization             0.317
   -- Diagnostics Out                        0.000
  => GEOS-Chem Column                      173.011
  ===> Total Chemistry                     174.225
  => WRF                                   678.569
  ===> Total WRF-GC                        852.794
 HOURLY EMISSIONS UPDATE TIME    10800.0       0.0
mediation_integrate: med_read_wrf_chem_emissions: Read emissions for time 2018-01-01_03:00:00
 max optd  1.9364301E+31
 max taucldi  7.4336670E-02
 max taucldw  0.7272798    
 Switching is not necessary as we are already
 in the right domain!
 GIGC_Chunk_Run: Running for in-PET grid #           1
 GIGC_Chunk_Run: Received new grid IM, JM, LM =          15           9
          49
 =================================================
 W R F - G C   T I M E R S
    Domain           1 (Units: s)
 =================================================
  => Coupler Component                       1.249
   -- Physics & Parameterization             0.326
   -- Diagnostics Out                        0.000
  => GEOS-Chem Column                      174.036
  ===> Total Chemistry                     175.285
  => WRF                                   696.740
  ===> Total WRF-GC                        872.025
 max optd  1.9364301E+31
 max taucldi  7.2897166E-02
 max taucldw  0.7666112    
 Switching is not necessary as we are already
 in the right domain!
 GIGC_Chunk_Run: Running for in-PET grid #           1
 GIGC_Chunk_Run: Received new grid IM, JM, LM =          15           9
          49
 =================================================
 W R F - G C   T I M E R S
    Domain           1 (Units: s)
 =================================================
  => Coupler Component                       1.282
   -- Physics & Parameterization             0.335
   -- Diagnostics Out                        0.000
  => GEOS-Chem Column                      175.059
  ===> Total Chemistry                     176.341
  => WRF                                   714.858
  ===> Total WRF-GC                        891.199
 max optd  1.9364301E+31
 max taucldi  7.3342174E-02
 max taucldw  0.7583722    
 Switching is not necessary as we are already
 in the right domain!
 GIGC_Chunk_Run: Running for in-PET grid #           1
 GIGC_Chunk_Run: Received new grid IM, JM, LM =          15           9
          49
 =================================================
 W R F - G C   T I M E R S
    Domain           1 (Units: s)
 =================================================
  => Coupler Component                       1.316
   -- Physics & Parameterization             0.343
   -- Diagnostics Out                        0.000
  => GEOS-Chem Column                      176.072
  ===> Total Chemistry                     177.388
  => WRF                                   733.003
  ===> Total WRF-GC                        910.391
 max optd  1.9364301E+31
 max taucldi  7.4786678E-02
 max taucldw  0.7361639    
 Switching is not necessary as we are already
 in the right domain!
 GIGC_Chunk_Run: Running for in-PET grid #           1
 GIGC_Chunk_Run: Received new grid IM, JM, LM =          15           9
          49
 =================================================
 W R F - G C   T I M E R S
    Domain           1 (Units: s)
 =================================================
  => Coupler Component                       1.350
   -- Physics & Parameterization             0.353
   -- Diagnostics Out                        0.000
  => GEOS-Chem Column                      177.089
  ===> Total Chemistry                     178.439
  => WRF                                   751.140
  ===> Total WRF-GC                        929.578
 max optd  1.9364301E+31
 max taucldi  7.6421946E-02
 max taucldw  0.8008378    
 Switching is not necessary as we are already
 in the right domain!
 GIGC_Chunk_Run: Running for in-PET grid #           1
 GIGC_Chunk_Run: Received new grid IM, JM, LM =          15           9
          49
 =================================================
 W R F - G C   T I M E R S
    Domain           1 (Units: s)
 =================================================
  => Coupler Component                       1.385
   -- Physics & Parameterization             0.361
   -- Diagnostics Out                        0.000
  => GEOS-Chem Column                      178.130
  ===> Total Chemistry                     179.515
  => WRF                                   769.244
  ===> Total WRF-GC                        948.759
 max optd  1.9364301E+31
 max taucldi  7.7558860E-02
 max taucldw  0.8270896    
 Switching is not necessary as we are already
 in the right domain!
 GIGC_Chunk_Run: Running for in-PET grid #           1
 GIGC_Chunk_Run: Received new grid IM, JM, LM =          15           9
          49
 =================================================
 W R F - G C   T I M E R S
    Domain           1 (Units: s)
 =================================================
  => Coupler Component                       1.419
   -- Physics & Parameterization             0.370
   -- Diagnostics Out                        0.000
  => GEOS-Chem Column                      179.154
  ===> Total Chemistry                     180.574
  => WRF                                   787.609
  ===> Total WRF-GC                        968.183
 max optd  1.9364301E+31
 max taucldi  7.8250147E-02
 max taucldw  0.8301700    
 Switching is not necessary as we are already
 in the right domain!
 GIGC_Chunk_Run: Running for in-PET grid #           1
 GIGC_Chunk_Run: Received new grid IM, JM, LM =          15           9
          49
 =================================================
 W R F - G C   T I M E R S
    Domain           1 (Units: s)
 =================================================
  => Coupler Component                       1.453
   -- Physics & Parameterization             0.379
   -- Diagnostics Out                        0.000
  => GEOS-Chem Column                      180.173
  ===> Total Chemistry                     181.626
  => WRF                                   805.813
  ===> Total WRF-GC                        987.439
 max optd  1.9364301E+31
 max taucldi  7.8503534E-02
 max taucldw  0.8156542    
 Switching is not necessary as we are already
 in the right domain!
 GIGC_Chunk_Run: Running for in-PET grid #           1
 GIGC_Chunk_Run: Received new grid IM, JM, LM =          15           9
          49
 =================================================
 W R F - G C   T I M E R S
    Domain           1 (Units: s)
 =================================================
  => Coupler Component                       1.489
   -- Physics & Parameterization             0.388
   -- Diagnostics Out                        0.000
  => GEOS-Chem Column                      181.210
  ===> Total Chemistry                     182.699
  => WRF                                   823.882
  ===> Total WRF-GC                       1006.581
 max optd  1.9364301E+31
 max taucldi  7.7252187E-02
 max taucldw  0.7534557    
 Switching is not necessary as we are already
 in the right domain!
 GIGC_Chunk_Run: Running for in-PET grid #           1
 GIGC_Chunk_Run: Received new grid IM, JM, LM =          15           9
          49
 =================================================
 W R F - G C   T I M E R S
    Domain           1 (Units: s)
 =================================================
  => Coupler Component                       1.522
   -- Physics & Parameterization             0.396
   -- Diagnostics Out                        0.000
  => GEOS-Chem Column                      182.234
  ===> Total Chemistry                     183.756
  => WRF                                   842.130
  ===> Total WRF-GC                       1025.886
 max optd  1.9364301E+31
 max taucldi  7.6887816E-02
 max taucldw  0.7156045    
 Switching is not necessary as we are already
 in the right domain!
 GIGC_Chunk_Run: Running for in-PET grid #           1
 GIGC_Chunk_Run: Received new grid IM, JM, LM =          15           9
          49
 =================================================
 W R F - G C   T I M E R S
    Domain           1 (Units: s)
 =================================================
  => Coupler Component                       1.558
   -- Physics & Parameterization             0.405
   -- Diagnostics Out                        0.000
  => GEOS-Chem Column                      183.256
  ===> Total Chemistry                     184.814
  => WRF                                   860.305
  ===> Total WRF-GC                       1045.119
 max optd  1.9364301E+31
 max taucldi  7.6905921E-02
 max taucldw  0.7079903    
 Switching is not necessary as we are already
 in the right domain!
 GIGC_Chunk_Run: Running for in-PET grid #           1
 GIGC_Chunk_Run: Received new grid IM, JM, LM =          15           9
          49
 =================================================
 W R F - G C   T I M E R S
    Domain           1 (Units: s)
 =================================================
  => Coupler Component                       1.594
   -- Physics & Parameterization             0.414
   -- Diagnostics Out                        0.000
  => GEOS-Chem Column                      184.290
  ===> Total Chemistry                     185.884
  => WRF                                   878.431
  ===> Total WRF-GC                       1064.315
 max optd  1.9364301E+31
 max taucldi  7.8039385E-02
 max taucldw  0.7935703    
 Switching is not necessary as we are already
 in the right domain!
 GIGC_Chunk_Run: Running for in-PET grid #           1
 GIGC_Chunk_Run: Received new grid IM, JM, LM =          15           9
          49
 =================================================
 W R F - G C   T I M E R S
    Domain           1 (Units: s)
 =================================================
  => Coupler Component                       1.626
   -- Physics & Parameterization             0.423
   -- Diagnostics Out                        0.000
  => GEOS-Chem Column                      185.320
  ===> Total Chemistry                     186.946
  => WRF                                   896.608
  ===> Total WRF-GC                       1083.554
 HOURLY EMISSIONS UPDATE TIME    14400.0       0.0
mediation_integrate: med_read_wrf_chem_emissions: Read emissions for time 2018-01-01_04:00:00
 max optd  1.9364301E+31
 max taucldi  7.9894669E-02
 max taucldw  0.8391950    
 Switching is not necessary as we are already
 in the right domain!
 GIGC_Chunk_Run: Running for in-PET grid #           1
 GIGC_Chunk_Run: Received new grid IM, JM, LM =          15           9
          49
 =================================================
 W R F - G C   T I M E R S
    Domain           1 (Units: s)
 =================================================
  => Coupler Component                       1.663
   -- Physics & Parameterization             0.432
   -- Diagnostics Out                        0.000
  => GEOS-Chem Column                      186.341
  ===> Total Chemistry                     188.004
  => WRF                                   914.771
  ===> Total WRF-GC                       1102.775
 max optd  1.9364301E+31
 max taucldi  8.2035467E-02
 max taucldw  0.8383707    
 Switching is not necessary as we are already
 in the right domain!
 GIGC_Chunk_Run: Running for in-PET grid #           1
 GIGC_Chunk_Run: Received new grid IM, JM, LM =          15           9
          49
 =================================================
 W R F - G C   T I M E R S
    Domain           1 (Units: s)
 =================================================
  => Coupler Component                       1.698
   -- Physics & Parameterization             0.441
   -- Diagnostics Out                        0.000
  => GEOS-Chem Column                      187.375
  ===> Total Chemistry                     189.073
  => WRF                                   932.943
  ===> Total WRF-GC                       1122.016
 max optd  1.9364301E+31
 max taucldi  8.4548421E-02
 max taucldw  0.8416297    
 Switching is not necessary as we are already
 in the right domain!
 GIGC_Chunk_Run: Running for in-PET grid #           1
 GIGC_Chunk_Run: Received new grid IM, JM, LM =          15           9
          49
 =================================================
 W R F - G C   T I M E R S
    Domain           1 (Units: s)
 =================================================
  => Coupler Component                       1.733
   -- Physics & Parameterization             0.449
   -- Diagnostics Out                        0.000
  => GEOS-Chem Column                      188.408
  ===> Total Chemistry                     190.141
  => WRF                                   951.186
  ===> Total WRF-GC                       1141.327
 max optd  1.9364301E+31
 max taucldi  8.6605847E-02
 max taucldw  0.8384395    
 Switching is not necessary as we are already
 in the right domain!
 GIGC_Chunk_Run: Running for in-PET grid #           1
 GIGC_Chunk_Run: Received new grid IM, JM, LM =          15           9
          49
 =================================================
 W R F - G C   T I M E R S
    Domain           1 (Units: s)
 =================================================
  => Coupler Component                       1.771
   -- Physics & Parameterization             0.458
   -- Diagnostics Out                        0.000
  => GEOS-Chem Column                      189.430
  ===> Total Chemistry                     191.201
  => WRF                                   969.325
  ===> Total WRF-GC                       1160.526
 max optd  1.9364301E+31
 max taucldi  8.7455124E-02
 max taucldw  0.8730326    
 Switching is not necessary as we are already
 in the right domain!
 GIGC_Chunk_Run: Running for in-PET grid #           1
 GIGC_Chunk_Run: Received new grid IM, JM, LM =          15           9
          49
 =================================================
 W R F - G C   T I M E R S
    Domain           1 (Units: s)
 =================================================
  => Coupler Component                       1.806
   -- Physics & Parameterization             0.467
   -- Diagnostics Out                        0.000
  => GEOS-Chem Column                      190.464
  ===> Total Chemistry                     192.270
  => WRF                                   987.511
  ===> Total WRF-GC                       1179.781
 max optd  1.9364301E+31
 max taucldi  8.7823190E-02
 max taucldw  0.9003195    
 Switching is not necessary as we are already
 in the right domain!
 GIGC_Chunk_Run: Running for in-PET grid #           1
 GIGC_Chunk_Run: Received new grid IM, JM, LM =          15           9
          49
 =================================================
 W R F - G C   T I M E R S
    Domain           1 (Units: s)
 =================================================
  => Coupler Component                       1.839
   -- Physics & Parameterization             0.475
   -- Diagnostics Out                        0.000
  => GEOS-Chem Column                      191.483
  ===> Total Chemistry                     193.322
  => WRF                                  1005.685
  ===> Total WRF-GC                       1199.007
 max optd  1.9364301E+31
 max taucldi  8.8017732E-02
 max taucldw  0.9181708    
 Switching is not necessary as we are already
 in the right domain!
 GIGC_Chunk_Run: Running for in-PET grid #           1
 GIGC_Chunk_Run: Received new grid IM, JM, LM =          15           9
          49
 =================================================
 W R F - G C   T I M E R S
    Domain           1 (Units: s)
 =================================================
  => Coupler Component                       1.875
   -- Physics & Parameterization             0.484
   -- Diagnostics Out                        0.000
  => GEOS-Chem Column                      192.516
  ===> Total Chemistry                     194.391
  => WRF                                  1023.915
  ===> Total WRF-GC                       1218.306
 max optd  1.9364301E+31
 max taucldi  8.8041142E-02
 max taucldw  0.9064361    
 Switching is not necessary as we are already
 in the right domain!
 GIGC_Chunk_Run: Running for in-PET grid #           1
 GIGC_Chunk_Run: Received new grid IM, JM, LM =          15           9
          49
 =================================================
 W R F - G C   T I M E R S
    Domain           1 (Units: s)
 =================================================
  => Coupler Component                       1.909
   -- Physics & Parameterization             0.492
   -- Diagnostics Out                        0.000
  => GEOS-Chem Column                      193.541
  ===> Total Chemistry                     195.450
  => WRF                                  1042.045
  ===> Total WRF-GC                       1237.495
 max optd  1.9364301E+31
 max taucldi  8.8239796E-02
 max taucldw  0.9028755    
 Switching is not necessary as we are already
 in the right domain!
 GIGC_Chunk_Run: Running for in-PET grid #           1
 GIGC_Chunk_Run: Received new grid IM, JM, LM =          15           9
          49
 =================================================
 W R F - G C   T I M E R S
    Domain           1 (Units: s)
 =================================================
  => Coupler Component                       1.944
   -- Physics & Parameterization             0.501
   -- Diagnostics Out                        0.000
  => GEOS-Chem Column                      194.561
  ===> Total Chemistry                     196.504
  => WRF                                  1060.226
  ===> Total WRF-GC                       1256.730
 max optd  1.9364301E+31
 max taucldi  8.8660054E-02
 max taucldw  0.9133838    
 Switching is not necessary as we are already
 in the right domain!
 GIGC_Chunk_Run: Running for in-PET grid #           1
 GIGC_Chunk_Run: Received new grid IM, JM, LM =          15           9
          49
 =================================================
 W R F - G C   T I M E R S
    Domain           1 (Units: s)
 =================================================
  => Coupler Component                       1.977
   -- Physics & Parameterization             0.510
   -- Diagnostics Out                        0.000
  => GEOS-Chem Column                      195.584
  ===> Total Chemistry                     197.562
  => WRF                                  1078.386
  ===> Total WRF-GC                       1275.948
 max optd  1.9364301E+31
 max taucldi  8.9396425E-02
 max taucldw  0.9140911    
 Switching is not necessary as we are already
 in the right domain!
 GIGC_Chunk_Run: Running for in-PET grid #           1
 GIGC_Chunk_Run: Received new grid IM, JM, LM =          15           9
          49
 =================================================
 W R F - G C   T I M E R S
    Domain           1 (Units: s)
 =================================================
  => Coupler Component                       2.010
   -- Physics & Parameterization             0.519
   -- Diagnostics Out                        0.000
  => GEOS-Chem Column                      196.618
  ===> Total Chemistry                     198.628
  => WRF                                  1096.512
  ===> Total WRF-GC                       1295.141
 max optd  1.9364301E+31
 max taucldi  9.0503812E-02
 max taucldw  0.9197367    
 Switching is not necessary as we are already
 in the right domain!
 GIGC_Chunk_Run: Running for in-PET grid #           1
 GIGC_Chunk_Run: Received new grid IM, JM, LM =          15           9
          49
 =================================================
 W R F - G C   T I M E R S
    Domain           1 (Units: s)
 =================================================
  => Coupler Component                       2.044
   -- Physics & Parameterization             0.528
   -- Diagnostics Out                        0.000
  => GEOS-Chem Column                      197.636
  ===> Total Chemistry                     199.680
  => WRF                                  1114.606
  ===> Total WRF-GC                       1314.286
 HOURLY EMISSIONS UPDATE TIME    18000.0       0.0
mediation_integrate: med_read_wrf_chem_emissions: Read emissions for time 2018-01-01_05:00:00
 max optd  1.9364301E+31
 max taucldi  9.1751777E-02
 max taucldw  0.9105716    
 Switching is not necessary as we are already
 in the right domain!
 GIGC_Chunk_Run: Running for in-PET grid #           1
 GIGC_Chunk_Run: Received new grid IM, JM, LM =          15           9
          49
 =================================================
 W R F - G C   T I M E R S
    Domain           1 (Units: s)
 =================================================
  => Coupler Component                       2.076
   -- Physics & Parameterization             0.537
   -- Diagnostics Out                        0.000
  => GEOS-Chem Column                      198.685
  ===> Total Chemistry                     200.762
  => WRF                                  1132.820
  ===> Total WRF-GC                       1333.582
 max optd  1.9364301E+31
 max taucldi  9.2794426E-02
 max taucldw  0.9146556    
 Switching is not necessary as we are already
 in the right domain!
 GIGC_Chunk_Run: Running for in-PET grid #           1
 GIGC_Chunk_Run: Received new grid IM, JM, LM =          15           9
          49
 =================================================
 W R F - G C   T I M E R S
    Domain           1 (Units: s)
 =================================================
  => Coupler Component                       2.110
   -- Physics & Parameterization             0.546
   -- Diagnostics Out                        0.000
  => GEOS-Chem Column                      199.740
  ===> Total Chemistry                     201.850
  => WRF                                  1150.921
  ===> Total WRF-GC                       1352.771
 max optd  1.9364301E+31
 max taucldi  9.3497515E-02
 max taucldw  0.9036925    
 Switching is not necessary as we are already
 in the right domain!
 GIGC_Chunk_Run: Running for in-PET grid #           1
 GIGC_Chunk_Run: Received new grid IM, JM, LM =          15           9
          49
 =================================================
 W R F - G C   T I M E R S
    Domain           1 (Units: s)
 =================================================
  => Coupler Component                       2.146
   -- Physics & Parameterization             0.555
   -- Diagnostics Out                        0.000
  => GEOS-Chem Column                      200.759
  ===> Total Chemistry                     202.905
  => WRF                                  1169.032
  ===> Total WRF-GC                       1371.937
 max optd  1.9364301E+31
 max taucldi  9.3900390E-02
 max taucldw  0.9081541    
 Switching is not necessary as we are already
 in the right domain!
 GIGC_Chunk_Run: Running for in-PET grid #           1
 GIGC_Chunk_Run: Received new grid IM, JM, LM =          15           9
          49
 =================================================
 W R F - G C   T I M E R S
    Domain           1 (Units: s)
 =================================================
  => Coupler Component                       2.181
   -- Physics & Parameterization             0.564
   -- Diagnostics Out                        0.000
  => GEOS-Chem Column                      201.786
  ===> Total Chemistry                     203.967
  => WRF                                  1187.203
  ===> Total WRF-GC                       1391.170
 max optd  1.9364301E+31
 max taucldi  9.4288148E-02
 max taucldw  0.9127567    
 Switching is not necessary as we are already
 in the right domain!
 GIGC_Chunk_Run: Running for in-PET grid #           1
 GIGC_Chunk_Run: Received new grid IM, JM, LM =          15           9
          49
 =================================================
 W R F - G C   T I M E R S
    Domain           1 (Units: s)
 =================================================
  => Coupler Component                       2.216
   -- Physics & Parameterization             0.573
   -- Diagnostics Out                        0.000
  => GEOS-Chem Column                      202.817
  ===> Total Chemistry                     205.034
  => WRF                                  1205.415
  ===> Total WRF-GC                       1410.449
 max optd  1.9364301E+31
 max taucldi  9.4368093E-02
 max taucldw  0.9153844    
 Switching is not necessary as we are already
 in the right domain!
 GIGC_Chunk_Run: Running for in-PET grid #           1
 GIGC_Chunk_Run: Received new grid IM, JM, LM =          15           9
          49
 =================================================
 W R F - G C   T I M E R S
    Domain           1 (Units: s)
 =================================================
  => Coupler Component                       2.251
   -- Physics & Parameterization             0.581
   -- Diagnostics Out                        0.000
  => GEOS-Chem Column                      203.854
  ===> Total Chemistry                     206.105
  => WRF                                  1223.525
  ===> Total WRF-GC                       1429.630
 max optd  1.9364301E+31
 max taucldi  9.4355442E-02
 max taucldw  0.8944233    
 Switching is not necessary as we are already
 in the right domain!
 GIGC_Chunk_Run: Running for in-PET grid #           1
 GIGC_Chunk_Run: Received new grid IM, JM, LM =          15           9
          49
 =================================================
 W R F - G C   T I M E R S
    Domain           1 (Units: s)
 =================================================
  => Coupler Component                       2.284
   -- Physics & Parameterization             0.590
   -- Diagnostics Out                        0.000
  => GEOS-Chem Column                      204.879
  ===> Total Chemistry                     207.163
  => WRF                                  1241.744
  ===> Total WRF-GC                       1448.907
 max optd  1.9364301E+31
 max taucldi  9.4418876E-02
 max taucldw  0.8755355    
 Switching is not necessary as we are already
 in the right domain!
 GIGC_Chunk_Run: Running for in-PET grid #           1
 GIGC_Chunk_Run: Received new grid IM, JM, LM =          15           9
          49
 =================================================
 W R F - G C   T I M E R S
    Domain           1 (Units: s)
 =================================================
  => Coupler Component                       2.322
   -- Physics & Parameterization             0.599
   -- Diagnostics Out                        0.000
  => GEOS-Chem Column                      205.893
  ===> Total Chemistry                     208.215
  => WRF                                  1259.889
  ===> Total WRF-GC                       1468.104
 max optd  1.9364301E+31
 max taucldi  9.4893105E-02
 max taucldw  0.8707710    
 Switching is not necessary as we are already
 in the right domain!
 GIGC_Chunk_Run: Running for in-PET grid #           1
 GIGC_Chunk_Run: Received new grid IM, JM, LM =          15           9
          49
 =================================================
 W R F - G C   T I M E R S
    Domain           1 (Units: s)
 =================================================
  => Coupler Component                       2.355
   -- Physics & Parameterization             0.608
   -- Diagnostics Out                        0.000
  => GEOS-Chem Column                      206.925
  ===> Total Chemistry                     209.281
  => WRF                                  1278.099
  ===> Total WRF-GC                       1487.380
 max optd  1.9364301E+31
 max taucldi  9.5780015E-02
 max taucldw  0.8820728    
 Switching is not necessary as we are already
 in the right domain!
 GIGC_Chunk_Run: Running for in-PET grid #           1
 GIGC_Chunk_Run: Received new grid IM, JM, LM =          15           9
          49
 =================================================
 W R F - G C   T I M E R S
    Domain           1 (Units: s)
 =================================================
  => Coupler Component                       2.389
   -- Physics & Parameterization             0.616
   -- Diagnostics Out                        0.000
  => GEOS-Chem Column                      207.970
  ===> Total Chemistry                     210.359
  => WRF                                  1296.532
  ===> Total WRF-GC                       1506.891
 max optd  1.9364301E+31
 max taucldi  9.6935377E-02
 max taucldw  0.9014897    
 Switching is not necessary as we are already
 in the right domain!
 GIGC_Chunk_Run: Running for in-PET grid #           1
 GIGC_Chunk_Run: Received new grid IM, JM, LM =          15           9
          49
 =================================================
 W R F - G C   T I M E R S
    Domain           1 (Units: s)
 =================================================
  => Coupler Component                       2.425
   -- Physics & Parameterization             0.625
   -- Diagnostics Out                        0.000
  => GEOS-Chem Column                      208.997
  ===> Total Chemistry                     211.422
  => WRF                                  1314.669
  ===> Total WRF-GC                       1526.091
 max optd  1.9364301E+31
 max taucldi  9.7637065E-02
 max taucldw  0.9316691    
 Switching is not necessary as we are already
 in the right domain!
 GIGC_Chunk_Run: Running for in-PET grid #           1
 GIGC_Chunk_Run: Received new grid IM, JM, LM =          15           9
          49
 =================================================
 W R F - G C   T I M E R S
    Domain           1 (Units: s)
 =================================================
  => Coupler Component                       2.458
   -- Physics & Parameterization             0.634
   -- Diagnostics Out                        0.000
  => GEOS-Chem Column                      210.012
  ===> Total Chemistry                     212.470
  => WRF                                  1332.846
  ===> Total WRF-GC                       1545.316
 HOURLY EMISSIONS UPDATE TIME    21600.0       0.0
mediation_integrate: med_read_wrf_chem_emissions: Read emissions for time 2018-01-01_06:00:00
 max optd  1.9364301E+31
 max taucldi  9.6487619E-02
 max taucldw  0.9992328    
 Switching is not necessary as we are already
 in the right domain!
 GIGC_Chunk_Run: Running for in-PET grid #           1
 GIGC_Chunk_Run: Received new grid IM, JM, LM =          15           9
          49
 =================================================
 W R F - G C   T I M E R S
    Domain           1 (Units: s)
 =================================================
  => Coupler Component                       2.492
   -- Physics & Parameterization             0.643
   -- Diagnostics Out                        0.000
  => GEOS-Chem Column                      211.050
  ===> Total Chemistry                     213.542
  => WRF                                  1791.538
  ===> Total WRF-GC                       2005.080
 max optd  1.9364301E+31
 max taucldi  9.5317841E-02
 max taucldw   1.006226    
 Switching is not necessary as we are already
 in the right domain!
 GIGC_Chunk_Run: Running for in-PET grid #           1
 GIGC_Chunk_Run: Received new grid IM, JM, LM =          15           9
          49
 =================================================
 W R F - G C   T I M E R S
    Domain           1 (Units: s)
 =================================================
  => Coupler Component                       2.524
   -- Physics & Parameterization             0.652
   -- Diagnostics Out                        0.000
  => GEOS-Chem Column                      212.097
  ===> Total Chemistry                     214.621
  => WRF                                  1809.701
  ===> Total WRF-GC                       2024.322
 max optd  1.9364301E+31
 max taucldi  9.4651893E-02
 max taucldw   1.013299    
 Switching is not necessary as we are already
 in the right domain!
 GIGC_Chunk_Run: Running for in-PET grid #           1
 GIGC_Chunk_Run: Received new grid IM, JM, LM =          15           9
          49
 =================================================
 W R F - G C   T I M E R S
    Domain           1 (Units: s)
 =================================================
  => Coupler Component                       2.558
   -- Physics & Parameterization             0.661
   -- Diagnostics Out                        0.000
  => GEOS-Chem Column                      213.120
  ===> Total Chemistry                     215.678
  => WRF                                  1827.989
  ===> Total WRF-GC                       2043.667
 max optd  1.9364301E+31
 max taucldi  9.3842827E-02
 max taucldw   1.047084    
 Switching is not necessary as we are already
 in the right domain!
 GIGC_Chunk_Run: Running for in-PET grid #           1
 GIGC_Chunk_Run: Received new grid IM, JM, LM =          15           9
          49
 =================================================
 W R F - G C   T I M E R S
    Domain           1 (Units: s)
 =================================================
  => Coupler Component                       2.593
[...]
  => GEOS-Chem Column                      259.394
  ===> Total Chemistry                     263.468
  => WRF                                  2647.518
  ===> Total WRF-GC                       2910.987
 HOURLY EMISSIONS UPDATE TIME    36000.0       0.0
mediation_integrate: med_read_wrf_chem_emissions: Read emissions for time 2018-01-01_10:00:00
 max optd  1.9364301E+31
 max taucldi  0.1982531    
 max taucldw   1.432022    
 Switching is not necessary as we are already
 in the right domain!
 GIGC_Chunk_Run: Running for in-PET grid #           1
 GIGC_Chunk_Run: Received new grid IM, JM, LM =          15           9
          49
 =================================================
 W R F - G C   T I M E R S
    Domain           1 (Units: s)
 =================================================
  => Coupler Component                       4.106
   -- Physics & Parameterization             1.062
   -- Diagnostics Out                        0.000
  => GEOS-Chem Column                      260.430
  ===> Total Chemistry                     264.537
  => WRF                                  2665.788
  ===> Total WRF-GC                       2930.325
 max optd  1.9364301E+31
 max taucldi  0.2038295    
 max taucldw   1.422931    
 Switching is not necessary as we are already
 in the right domain!
 GIGC_Chunk_Run: Running for in-PET grid #           1
 GIGC_Chunk_Run: Received new grid IM, JM, LM =          15           9
          49
 =================================================
 W R F - G C   T I M E R S
    Domain           1 (Units: s)
 =================================================
  => Coupler Component                       4.139
   -- Physics & Parameterization             1.071
   -- Diagnostics Out                        0.000
  => GEOS-Chem Column                      261.461
  ===> Total Chemistry                     265.600
  => WRF                                  2683.968
  ===> Total WRF-GC                       2949.568
 max optd  1.9364301E+31
 max taucldi  0.2152484    
 max taucldw   1.401555    
 Switching is not necessary as we are already
 in the right domain!
 GIGC_Chunk_Run: Running for in-PET grid #           1
 GIGC_Chunk_Run: Received new grid IM, JM, LM =          15           9
          49
 =================================================
 W R F - G C   T I M E R S
    Domain           1 (Units: s)
 =================================================
  => Coupler Component                       4.174
   -- Physics & Parameterization             1.080
   -- Diagnostics Out                        0.000
  => GEOS-Chem Column                      262.494
  ===> Total Chemistry                     266.668
  => WRF                                  2702.138
  ===> Total WRF-GC                       2968.806
 max optd  1.9364301E+31
 max taucldi  0.2220262    
 max taucldw   1.345802    
 Switching is not necessary as we are already
 in the right domain!
 GIGC_Chunk_Run: Running for in-PET grid #           1
 GIGC_Chunk_Run: Received new grid IM, JM, LM =          15           9
          49
 =================================================
 W R F - G C   T I M E R S
    Domain           1 (Units: s)
 =================================================
  => Coupler Component                       4.206
   -- Physics & Parameterization             1.088
   -- Diagnostics Out                        0.000
  => GEOS-Chem Column                      263.533
  ===> Total Chemistry                     267.739
  => WRF                                  2720.403
  ===> Total WRF-GC                       2988.142
 max optd  1.9364301E+31
 max taucldi  0.2273273    
 max taucldw   1.281056    
 Switching is not necessary as we are already
 in the right domain!
 GIGC_Chunk_Run: Running for in-PET grid #           1
 GIGC_Chunk_Run: Received new grid IM, JM, LM =          15           9
          49
 =================================================
 W R F - G C   T I M E R S
    Domain           1 (Units: s)
 =================================================
  => Coupler Component                       4.238
   -- Physics & Parameterization             1.097
   -- Diagnostics Out                        0.000
  => GEOS-Chem Column                      264.551
  ===> Total Chemistry                     268.790
  => WRF                                  2738.607
  ===> Total WRF-GC                       3007.397
 max optd  1.9364301E+31
 max taucldi  0.2381067    
 max taucldw   1.264048    
 Switching is not necessary as we are already
 in the right domain!
 GIGC_Chunk_Run: Running for in-PET grid #           1
 GIGC_Chunk_Run: Received new grid IM, JM, LM =          15           9
          49
 =================================================
 W R F - G C   T I M E R S
    Domain           1 (Units: s)
 =================================================
  => Coupler Component                       4.271
   -- Physics & Parameterization             1.106
   -- Diagnostics Out                        0.000
  => GEOS-Chem Column                      265.583
  ===> Total Chemistry                     269.854
  => WRF                                  2756.755
  ===> Total WRF-GC                       3026.609
 max optd  1.9364301E+31
 max taucldi  0.2421619    
 max taucldw   1.249666    
 Switching is not necessary as we are already
 in the right domain!
 GIGC_Chunk_Run: Running for in-PET grid #           1
 GIGC_Chunk_Run: Received new grid IM, JM, LM =          15           9
          49
 =================================================
 W R F - G C   T I M E R S
    Domain           1 (Units: s)
 =================================================
  => Coupler Component                       4.305
   -- Physics & Parameterization             1.114
   -- Diagnostics Out                        0.000
  => GEOS-Chem Column                      266.624
  ===> Total Chemistry                     270.929
  => WRF                                  2774.969
  ===> Total WRF-GC                       3045.898
 max optd  1.9364301E+31
 max taucldi  0.2351512    
 max taucldw   1.206319    
 Switching is not necessary as we are already
 in the right domain!
 GIGC_Chunk_Run: Running for in-PET grid #           1
 GIGC_Chunk_Run: Received new grid IM, JM, LM =          15           9
          49
 =================================================
 W R F - G C   T I M E R S
    Domain           1 (Units: s)
 =================================================
  => Coupler Component                       4.337
   -- Physics & Parameterization             1.123
   -- Diagnostics Out                        0.000
  => GEOS-Chem Column                      267.651
  ===> Total Chemistry                     271.988
  => WRF                                  2793.153
  ===> Total WRF-GC                       3065.141
 max optd  1.9364301E+31
 max taucldi  0.2375313    
 max taucldw   1.167843    
 Switching is not necessary as we are already
 in the right domain!
 GIGC_Chunk_Run: Running for in-PET grid #           1
 GIGC_Chunk_Run: Received new grid IM, JM, LM =          15           9
          49
 =================================================
 W R F - G C   T I M E R S
    Domain           1 (Units: s)
 =================================================
  => Coupler Component                       4.373
   -- Physics & Parameterization             1.132
   -- Diagnostics Out                        0.000
  => GEOS-Chem Column                      268.684
  ===> Total Chemistry                     273.057
  => WRF                                  2811.317
  ===> Total WRF-GC                       3084.375
 max optd  1.9364301E+31
 max taucldi  0.2336668    
 max taucldw   1.198556    
 Switching is not necessary as we are already
 in the right domain!
 GIGC_Chunk_Run: Running for in-PET grid #           1
 GIGC_Chunk_Run: Received new grid IM, JM, LM =          15           9
          49
 =================================================
 W R F - G C   T I M E R S
    Domain           1 (Units: s)
 =================================================
  => Coupler Component                       4.406
   -- Physics & Parameterization             1.141
   -- Diagnostics Out                        0.000
  => GEOS-Chem Column                      269.722
  ===> Total Chemistry                     274.127
  => WRF                                  2829.563
  ===> Total WRF-GC                       3103.690
 max optd  1.9364301E+31
 max taucldi  0.2317796    
 max taucldw   1.253179    
 Switching is not necessary as we are already
 in the right domain!
 GIGC_Chunk_Run: Running for in-PET grid #           1
 GIGC_Chunk_Run: Received new grid IM, JM, LM =          15           9
          49
 =================================================
 W R F - G C   T I M E R S
    Domain           1 (Units: s)
 =================================================
  => Coupler Component                       4.438
   -- Physics & Parameterization             1.150
   -- Diagnostics Out                        0.000
  => GEOS-Chem Column                      270.751
  ===> Total Chemistry                     275.188
  => WRF                                  2847.740
  ===> Total WRF-GC                       3122.929
 max optd  1.9364301E+31
 max taucldi  0.2317926    
 max taucldw   1.271401    
 Switching is not necessary as we are already
 in the right domain!
 GIGC_Chunk_Run: Running for in-PET grid #           1
 GIGC_Chunk_Run: Received new grid IM, JM, LM =          15           9
          49
 =================================================
 W R F - G C   T I M E R S
    Domain           1 (Units: s)
 =================================================
  => Coupler Component                       4.470
   -- Physics & Parameterization             1.158
   -- Diagnostics Out                        0.000
  => GEOS-Chem Column                      271.809
  ===> Total Chemistry                     276.280
  => WRF                                  2865.977
  ===> Total WRF-GC                       3142.257
 HOURLY EMISSIONS UPDATE TIME    39600.0       0.0
mediation_integrate: med_read_wrf_chem_emissions: Read emissions for time 2018-01-01_11:00:00
 max optd  1.9364301E+31
 max taucldi  0.2274578    
 max taucldw   1.310232    
 Switching is not necessary as we are already
 in the right domain!
 GIGC_Chunk_Run: Running for in-PET grid #           1
 GIGC_Chunk_Run: Received new grid IM, JM, LM =          15           9
          49
 =================================================
 W R F - G C   T I M E R S
    Domain           1 (Units: s)
 =================================================
  => Coupler Component                       4.504
   -- Physics & Parameterization             1.167
   -- Diagnostics Out                        0.000
  => GEOS-Chem Column                      272.843
  ===> Total Chemistry                     277.347
  => WRF                                  2884.154
  ===> Total WRF-GC                       3161.501
 max optd  1.9364301E+31
 max taucldi  0.2265863    
 max taucldw   1.366063    
 Switching is not necessary as we are already
 in the right domain!
 GIGC_Chunk_Run: Running for in-PET grid #           1
 GIGC_Chunk_Run: Received new grid IM, JM, LM =          15           9
          49
 =================================================
 W R F - G C   T I M E R S
    Domain           1 (Units: s)
 =================================================
  => Coupler Component                       4.535
   -- Physics & Parameterization             1.176
   -- Diagnostics Out                        0.000
  => GEOS-Chem Column                      273.878
  ===> Total Chemistry                     278.413
  => WRF                                  2902.317
  ===> Total WRF-GC                       3180.730
 max optd  1.9364301E+31
 max taucldi  0.2260483    
 max taucldw   1.424335    
 Switching is not necessary as we are already
 in the right domain!
 GIGC_Chunk_Run: Running for in-PET grid #           1
 GIGC_Chunk_Run: Received new grid IM, JM, LM =          15           9
          49
 =================================================
 W R F - G C   T I M E R S
    Domain           1 (Units: s)
 =================================================
  => Coupler Component                       4.568
   -- Physics & Parameterization             1.185
   -- Diagnostics Out                        0.000
  => GEOS-Chem Column                      274.913
  ===> Total Chemistry                     279.481
  => WRF                                  2920.585
  ===> Total WRF-GC                       3200.066
 max optd  1.9364301E+31
 max taucldi  0.2228514    
 max taucldw   1.476655    
 Switching is not necessary as we are already
 in the right domain!
 GIGC_Chunk_Run: Running for in-PET grid #           1
 GIGC_Chunk_Run: Received new grid IM, JM, LM =          15           9
          49
 =================================================
 W R F - G C   T I M E R S
    Domain           1 (Units: s)
 =================================================
  => Coupler Component                       4.601
   -- Physics & Parameterization             1.193
   -- Diagnostics Out                        0.000
  => GEOS-Chem Column                      275.945
  ===> Total Chemistry                     280.547
  => WRF                                  2938.891
  ===> Total WRF-GC                       3219.437
 max optd  1.9364301E+31
 max taucldi  0.2182390    
 max taucldw   1.525609    
 Switching is not necessary as we are already
 in the right domain!
 GIGC_Chunk_Run: Running for in-PET grid #           1
 GIGC_Chunk_Run: Received new grid IM, JM, LM =          15           9
          49
 =================================================
 W R F - G C   T I M E R S
    Domain           1 (Units: s)
 =================================================
  => Coupler Component                       4.634
   -- Physics & Parameterization             1.202
   -- Diagnostics Out                        0.000
  => GEOS-Chem Column                      276.980
  ===> Total Chemistry                     281.613
  => WRF                                  2957.339
  ===> Total WRF-GC                       3238.952
 max optd  1.9364301E+31
 max taucldi  0.2194083    
 max taucldw   1.568765    
 Switching is not necessary as we are already
 in the right domain!
 GIGC_Chunk_Run: Running for in-PET grid #           1
 GIGC_Chunk_Run: Received new grid IM, JM, LM =          15           9
          49
 =================================================
 W R F - G C   T I M E R S
    Domain           1 (Units: s)
 =================================================
  => Coupler Component                       4.665
   -- Physics & Parameterization             1.211
   -- Diagnostics Out                        0.000
  => GEOS-Chem Column                      278.006
  ===> Total Chemistry                     282.671
  => WRF                                  2975.760
  ===> Total WRF-GC                       3258.431
 max optd  1.9364301E+31
 max taucldi  0.2236430    
 max taucldw   1.590978    
 Switching is not necessary as we are already
 in the right domain!
 GIGC_Chunk_Run: Running for in-PET grid #           1
 GIGC_Chunk_Run: Received new grid IM, JM, LM =          15           9
          49
 =================================================
 W R F - G C   T I M E R S
    Domain           1 (Units: s)
 =================================================
  => Coupler Component                       4.696
   -- Physics & Parameterization             1.220
   -- Diagnostics Out                        0.000
  => GEOS-Chem Column                      279.033
  ===> Total Chemistry                     283.729
  => WRF                                  2994.340
  ===> Total WRF-GC                       3278.069
 max optd  1.9364301E+31
 max taucldi  0.2236375    
 max taucldw   1.607125    
 Switching is not necessary as we are already
 in the right domain!
 GIGC_Chunk_Run: Running for in-PET grid #           1
 GIGC_Chunk_Run: Received new grid IM, JM, LM =          15           9
          49
 =================================================
 W R F - G C   T I M E R S
    Domain           1 (Units: s)
 =================================================
  => Coupler Component                       4.728
   -- Physics & Parameterization             1.228
   -- Diagnostics Out                        0.000
  => GEOS-Chem Column                      280.079
  ===> Total Chemistry                     284.806
  => WRF                                  3012.934
  ===> Total WRF-GC                       3297.741
 max optd  1.9364301E+31
 max taucldi  0.2228814    
 max taucldw   1.624104    
 Switching is not necessary as we are already
 in the right domain!
 GIGC_Chunk_Run: Running for in-PET grid #           1
 GIGC_Chunk_Run: Received new grid IM, JM, LM =          15           9
          49
 =================================================
 W R F - G C   T I M E R S
    Domain           1 (Units: s)
 =================================================
  => Coupler Component                       4.760
   -- Physics & Parameterization             1.237
   -- Diagnostics Out                        0.000
  => GEOS-Chem Column                      281.114
  ===> Total Chemistry                     285.874
  => WRF                                  3031.651
  ===> Total WRF-GC                       3317.524
 max optd  1.9364301E+31
 max taucldi  0.2228145    
 max taucldw   1.632382    
 Switching is not necessary as we are already
 in the right domain!
 GIGC_Chunk_Run: Running for in-PET grid #           1
 GIGC_Chunk_Run: Received new grid IM, JM, LM =          15           9
          49
 =================================================
 W R F - G C   T I M E R S
    Domain           1 (Units: s)
 =================================================
  => Coupler Component                       4.794
   -- Physics & Parameterization             1.246
   -- Diagnostics Out                        0.000
  => GEOS-Chem Column                      282.153
  ===> Total Chemistry                     286.947
  => WRF                                  3050.583
  ===> Total WRF-GC                       3337.530
 max optd  1.9364301E+31
 max taucldi  0.2212590    
 max taucldw   1.618430    
 Switching is not necessary as we are already
 in the right domain!
 GIGC_Chunk_Run: Running for in-PET grid #           1
 GIGC_Chunk_Run: Received new grid IM, JM, LM =          15           9
          49
 =================================================
 W R F - G C   T I M E R S
    Domain           1 (Units: s)
 =================================================
  => Coupler Component                       4.826
   -- Physics & Parameterization             1.254
   -- Diagnostics Out                        0.000
  => GEOS-Chem Column                      283.180
  ===> Total Chemistry                     288.005
  => WRF                                  3069.412
  ===> Total WRF-GC                       3357.417
 max optd  1.9364301E+31
 max taucldi  0.2175749    
 max taucldw   1.591600    
 Switching is not necessary as we are already
 in the right domain!
 GIGC_Chunk_Run: Running for in-PET grid #           1
 GIGC_Chunk_Run: Received new grid IM, JM, LM =          15           9
          49
 =================================================
 W R F - G C   T I M E R S
    Domain           1 (Units: s)
 =================================================
  => Coupler Component                       4.856
   -- Physics & Parameterization             1.263
   -- Diagnostics Out                        0.000
  => GEOS-Chem Column                      284.206
  ===> Total Chemistry                     289.062
  => WRF                                  3088.197
  ===> Total WRF-GC                       3377.260
d01 2018-01-01_12:00:00 wrf: SUCCESS COMPLETE WRF
