taskid: 1494 hostname: ip-172-31-5-65
Quilting with   1 groups of   0 I/O tasks.
 Ntasks in X           64 , ntasks in Y           72
--- WARNING: traj_opt is zero, but num_traj is not zero; setting num_traj to zero.
--- NOTE: sst_update is 0, setting io_form_auxinput4 = 0 and auxinput4_interval = 0 for all domains
--- NOTE: grid_fdda is 0 for domain      1, setting gfdda interval and ending time to 0 for that domain.
--- NOTE: both grid_sfdda and pxlsm_soil_nudge are 0 for domain      1, setting sgfdda interval and ending time to 0 for that domain.
--- NOTE: obs_nudge_opt is 0 for domain      1, setting obs nudging interval and ending time to 0 for that domain.
--- NOTE: bl_pbl_physics /= 4, implies mfshconv must be 0, resetting
Need MYNN PBL for icloud_bl = 1, resetting to 0
*************************************
No physics suite selected.
Physics options will be used directly from the namelist.
*************************************
--- NOTE: RRTMG radiation is in use, setting:  levsiz=59, alevsiz=12, no_src_types=6
--- NOTE: num_soil_layers has been set to      4
WRF V3.9.1.1 MODEL
 *************************************
 Parent domain
 ids,ide,jds,jde            1         950           1         650
 ims,ime,jms,jme          324         352         202         224
 ips,ipe,jps,jpe          331         345         209         217
 *************************************
DYNAMICS OPTION: Eulerian Mass Coordinate
   alloc_space_field: domain            1 ,              203623800  bytes allocated
  med_initialdata_input: calling input_input
Max map factor in domain 1 =  1.40. Scale the dt in the model accordingly.
INPUT LandUse = "USGS"
 LANDUSE TYPE = "USGS" FOUND          33  CATEGORIES           2  SEASONS WATER CATEGORY =           16  SNOW CATEGORY =           24
INITIALIZE THREE Noah LSM RELATED TABLES
*****************************************************************
  __          _______  ______       _____  _____ _    _ _____
  \ \        / /  __ \|  ____|     / ____|/ ____| |  | |  __ \
   \ \  /\  / /| |__) | |__ ______| |  __| |    | |__| | |__) |
    \ \/  \/ / |  _  /|  __|______| | |_ | |    |  __  |  ___/
     \  /\  /  | | \ \| |         | |__| | |____| |  | | |
      \/  \/   |_|  \_\_|          \_____|\_____|_|  |_|_|
*****************************************************************
         WRF-GC MODEL, VERSION 1811.11 - WRF BINDINGS
 For errors, suggestions & feedback email linhaipeng@pku.edu.cn
*****************************************************************
    This is domain            1
 ### GIGC_Stateful_Mod: Root CPU, after READ_INPUT_FILE
  Linoz Data:  O3 climatology :                  z*=10, 12, ..., 58                             2.700E-08 1.083E-05
  Linoz Data:  Temperature climatology :         z*=10, 12, ..., 58                             1.859E+02 2.904E+02
  Linoz Data:  Column O3 above box climalology : z*=10, 12, ..., 58                             7.538E-02 3.770E+02
  Linoz Data:  P-L O3 climatology (mr/s):        z*=10, 12, ..., 58                            -1.590E-10 2.835E-11
  Linoz Data:  d(P-L)/dO3 (1/s) :                z*=10, 12, ..., 58                            -8.386E-04 7.556E-09
  Linoz Data:  d(P-L)/dT (mr/K) :                z*=10, 12, ..., 58                            -5.742E-12 4.615E-14
  Linoz Data:  d(P-L)/d(column O3) (mr/DU) :     z*=10, 12, ..., 58                            -1.921E-12 5.038E-10
 ### GIGC_Stateful_Mod: Root CPU, after LINOZ_READ
 %%%%%%%%% GIGC IN-PET GRID SWITCHING HACKS %%%%%%%%%
     (Not very) Proudly brought to you by hplin      
 Some debug information:
 ID:           1
 IM, JM, LM:          15           9          49  will be set as PAR
 Allocs: CMN T GC F
 RC at entry-point:           0
 %%%%%%%%%%%%%%%%%%%%%%%%%%%%%%%%%%%%%%%%%%%%%%%%%%%%
 No need to switch HcoState for ID           1
 Exit RC:            0
 %%%%%%%%%    FINISHED GIGC_Switch_Dims    %%%%%%%%%
 GIGC_Chunk_Init: Received new grid IM, JM, LM =          15           9
          49
     ### GIGC_INIT_SIMULATION: after Input_Opt% setups
     ### GIGC_INIT_SIMULATION: after GC_Init_All
     ### GIGC_INIT_SIMULATION: after GC_Init_Extra
     ### GIGC_INIT_SIMULATION: after INIT_FJX
 # GIGC_CHUNK_MOD: after SV save, ID =           1
 WRFGC chemics_init: Following information regarding Input_Opt% (for all doms)
 After domain           1
 HPC:  T
 LPRT:  F
 DoConv:  T
 DoDryDep:  T
 DoEmis:  T
 DoChem:  T
 DoTurb:  T
 DoWetDep:  T

 tropopause_init: DONE intialized domain            1

 mediation_integrate: med_read_wrf_chem_emissions: Open file wrfchemi_00z_d01
 HOURLY EMISSIONS UPDATE TIME        0.0       0.0
mediation_integrate: med_read_wrf_chem_emissions: Read emissions for time 2018-01-01_00:00:00
open_aux_u : error opening wrffirechemi_d01_2018-01-01_00:00:00 for reading. 100
open_aux_u : error opening wrfchemi_gocart_bg_d01 for reading. 100
d01 2018-01-01_00:00:00 Input data processed for aux input   8 for domain   1
open_aux_u : error opening wrfchemv_d01 for reading. 100
 Tile Strategy is not specified. Assuming 1D-Y
WRF TILE   1 IS    331 IE    345 JS    209 JE    217
WRF NUMBER OF TILES =   1
 max optd  3.3136669E+16
 max taucldi  0.0000000E+00
 max taucldw  0.0000000E+00
 =================================================
 W R F - G C   T I M E R S
    Domain           1 (Units: s)
 =================================================
  => Coupler Component                       0.041
   -- Physics & Parameterization             0.001
   -- Diagnostics Out                        0.000
  => GEOS-Chem Column                        0.000
  ===> Total Chemistry                       0.041
  => WRF                                     0.000
  ===> Total WRF-GC                          0.041
 max optd  3.3136669E+16
 max taucldi  1.0000006E-14
 max taucldw  1.0000006E-14
 %%%%%%%%% GIGC IN-PET GRID SWITCHING HACKS %%%%%%%%%
     (Not very) Proudly brought to you by hplin      
 Some debug information:
 ID:           1
 IM, JM, LM:          15           9          49  will be set as PAR
 Allocs: CMN T GC T
 RC at entry-point:           0
 %%%%%%%%%%%%%%%%%%%%%%%%%%%%%%%%%%%%%%%%%%%%%%%%%%%%
 No need to switch HcoState for ID           1
 Debug HcoState nSpc, NX, NY, NZ         163          15           9          49
 Exit RC:            0
 %%%%%%%%%    FINISHED GIGC_Switch_Dims    %%%%%%%%%
 GIGC_Chunk_Run: Running for in-PET grid #           1
 GIGC_Chunk_Run: Received new grid IM, JM, LM =          15           9
          49
HEMCO: Opening /fsx/HEMCO/BIOFUEL/v2014-07/biofuel.geos.4x5.nc
HEMCO: Opening /fsx/HEMCO/BROMINE/v2015-02/Bromocarb_Liang2010.nc
HEMCO: Opening /fsx/HEMCO/ACET/v2014-07/ACET_seawater.generic.1x1.nc
HEMCO: Opening /fsx/HEMCO/SOILNOX/v2014-07/DepReservoirDefault.nc
HEMCO: Opening /fsx/HEMCO/SOILNOX/v2014-07/soilNOx.landtype.generic.025x025.1L.nc
HEMCO: Opening /fsx/HEMCO/SOILNOX/v2014-07/soilNOx.climate.generic.05x05.nc
HEMCO: Opening /fsx/HEMCO/DUST_DEAD/v2014-07/dst_tibds.geos.4x5.nc
HEMCO: Opening /fsx/HEMCO/DUST_DEAD/v2014-07/GOCART_src_fn.geos.4x5.nc
HEMCO: Opening /fsx/HEMCO/MEGAN/v2018-05/MEGAN2.1_EF.geos.025x03125.nc
HEMCO: Opening /fsx/HEMCO/MEGAN/v2017-07/CLM4_PFT.geos.025x03125.nc
HEMCO: Opening /fsx/HEMCO/TIMEZONES/v2015-02/timezones_voronoi_1x1.nc
HEMCO: Opening /fsx/HEMCO/STRAT/v2015-01/Bry/GEOSCCM_Bry.200701.day.nc
HEMCO: Opening /fsx/HEMCO/STRAT/v2015-01/Bry/GEOSCCM_Bry.200701.night.nc
HEMCO: Opening /fsx/HEMCO/OMOC/v2018-01/OMOC.DJF.01x01.nc
HEMCO: Opening /fsx/HEMCO/OMOC/v2018-01/OMOC.MAM.01x01.nc
HEMCO: Opening /fsx/HEMCO/OMOC/v2018-01/OMOC.JJA.01x01.nc
HEMCO: Opening /fsx/HEMCO/OMOC/v2018-01/OMOC.SON.01x01.nc
HEMCO: Opening /fsx/HEMCO/AnnualScalar/v2014-07/AnnualScalar.geos.1x1.nc
HEMCO: Opening /fsx/HEMCO/EDGARv42/v2015-02/NO/EDGAR_hourly_NOxScal.nc
HEMCO: Opening /fsx/HEMCO/MASKS/v2018-09/EMEP_mask.geos.1x1.20151222.nc
HEMCO: Opening /fsx/HEMCO/MASKS/v2018-09/Canada_mask.geos.1x1.nc
HEMCO: Opening /fsx/HEMCO/MASKS/v2018-09/SE_Asia_mask.generic.1x1.nc
HEMCO: Opening /fsx/HEMCO/MASKS/v2018-09/MIX_Asia_mask.generic.025x025.nc
HEMCO: Opening /fsx/HEMCO/MASKS/v2018-09/CONUS_Mask.01x01.nc
HEMCO: Opening /fsx/HEMCO/MASKS/v2018-09/AF_LANDMASK.geos.05x0666.global.nc
HEMCO: Opening /fsx/HEMCO/MASKS/v2018-09/China_mask.generic.1x1.nc
HEMCO: Opening /fsx/HEMCO/MASKS/v2018-09/India_mask.generic.1x1.nc
HEMCO: Opening /fsx/HEMCO/AnnualScalar/v2014-07/AnnualScalar.geos.1x1.nc
HEMCO: Opening /fsx/HEMCO/NH3/v2014-07/NH3_geos.4x5.nc
HEMCO: Opening /fsx/HEMCO/NH3/v2018-04/NH3_Arctic_seabirds.nc
HEMCO: Opening /fsx/HEMCO/CEDS/v2018-08/2014/NO-em-anthro_CMIP_CEDS_2014.nc
HEMCO: Opening /fsx/HEMCO/CEDS/v2018-08/2014/CO-em-anthro_CMIP_CEDS_2014.nc
HEMCO: Opening /fsx/HEMCO/CEDS/v2018-08/2014/SO2-em-anthro_CMIP_CEDS_2014.nc
HEMCO: Opening /fsx/HEMCO/CEDS/v2018-08/2014/NH3-em-anthro_CMIP_CEDS_2014.nc
HEMCO: Opening /fsx/HEMCO/CEDS/v2018-08/2014/BC-em-anthro_CMIP_CEDS_2014.nc
HEMCO: Opening /fsx/HEMCO/CEDS/v2018-08/2014/OC-em-anthro_CMIP_CEDS_2014.nc
HEMCO: Opening /fsx/HEMCO/CEDS/v2018-08/2014/EOH-em-anthro_CMIP_CEDS_2014.nc
HEMCO: Opening /fsx/HEMCO/CEDS/v2018-08/2014/C2H6-em-anthro_CMIP_CEDS_2014.nc
HEMCO: Opening /fsx/HEMCO/CEDS/v2018-08/2014/C3H8-em-anthro_CMIP_CEDS_2014.nc
HEMCO: Opening /fsx/HEMCO/CEDS/v2018-08/2014/ALK4_butanes-em-anthro_CMIP_CEDS_2014.nc
HEMCO: Opening /fsx/HEMCO/CEDS/v2018-08/2014/ALK4_pentanes-em-anthro_CMIP_CEDS_2014.nc
HEMCO: Opening /fsx/HEMCO/CEDS/v2018-08/2014/ALK4_hexanes-em-anthro_CMIP_CEDS_2014.nc
HEMCO: Opening /fsx/HEMCO/CEDS/v2018-08/2014/PRPE-em-anthro_CMIP_CEDS_2014.nc
HEMCO: Opening /fsx/HEMCO/CEDS/v2018-08/2014/BENZ-em-anthro_CMIP_CEDS_2014.nc
HEMCO: Opening /fsx/HEMCO/CEDS/v2018-08/2014/TOLU-em-anthro_CMIP_CEDS_2014.nc
HEMCO: Opening /fsx/HEMCO/CEDS/v2018-08/2014/XYLE-em-anthro_CMIP_CEDS_2014.nc
HEMCO: Opening /fsx/HEMCO/CEDS/v2018-08/2014/CH2O-em-anthro_CMIP_CEDS_2014.nc
HEMCO: Opening /fsx/HEMCO/CEDS/v2018-08/2014/ALD2-em-anthro_CMIP_CEDS_2014.nc
HEMCO: Opening /fsx/HEMCO/CEDS/v2018-08/2014/MEK-em-anthro_CMIP_CEDS_2014.nc
HEMCO: Opening /fsx/HEMCO/CEDS/v2018-08/2014/HCOOH-em-anthro_CMIP_CEDS_2014.nc
HEMCO: Opening /fsx/HEMCO/C2H6_2010/v2017-05/C2H6_global_anth_biof.201001.nc
HEMCO: Opening /fsx/HEMCO/NEI2011/v2017-02-MM/01/NEI11_0.1x0.1_201101_monmean.nc
HEMCO: Opening /fsx/HEMCO/NEI2011/v2017-02-MM/01/NEI11_0.1x0.1_201101_monmean_egu.nc
HEMCO: Opening /fsx/HEMCO/NEI2011/v2017-02-MM/01/NEI11_0.1x0.1_201101_monmean_egupk.nc
HEMCO: Opening /fsx/HEMCO/NEI2011/v2017-02-MM/01/NEI11_0.1x0.1_201101_monmean_oilgas.nc
HEMCO: Opening /fsx/HEMCO/NEI2011/v2017-02-MM/01/NEI11_0.1x0.1_201101_monmean_othpt.nc
HEMCO: Opening /fsx/HEMCO/NEI2011/v2017-02-MM/01/NEI11_0.1x0.1_201101_monmean_ptnonipm.nc
HEMCO: Opening /fsx/HEMCO/IODINE/v2017-09/CH3I_monthly_emissions_Ordonez_2012_COARDS.nc
HEMCO: Opening /fsx/HEMCO/IODINE/v2017-09/CH2I2_monthly_emissions_Ordonez_2012_COARDS.nc
HEMCO: Opening /fsx/HEMCO/IODINE/v2017-09/CH2ICl_monthly_emissions_Ordonez_2012_COARDS.nc
HEMCO: Opening /fsx/HEMCO/IODINE/v2017-09/CH2IBr_monthly_emissions_Ordonez_2012_COARDS.nc
HEMCO: Opening /fsx/HEMCO/CEDS/v2018-08/2014/CO-em-anthro_CMIP_CEDS_2014.nc
HEMCO: Opening /fsx/HEMCO/CEDS/v2018-08/2014/SO2-em-anthro_CMIP_CEDS_2014.nc
HEMCO: Opening /fsx/HEMCO/CEDS/v2018-08/2014/NH3-em-anthro_CMIP_CEDS_2014.nc
HEMCO: Opening /fsx/HEMCO/CEDS/v2018-08/2014/BC-em-anthro_CMIP_CEDS_2014.nc
HEMCO: Opening /fsx/HEMCO/CEDS/v2018-08/2014/OC-em-anthro_CMIP_CEDS_2014.nc
HEMCO: Opening /fsx/HEMCO/CEDS/v2018-08/2014/EOH-em-anthro_CMIP_CEDS_2014.nc
HEMCO: Opening /fsx/HEMCO/CEDS/v2018-08/2014/C2H6-em-anthro_CMIP_CEDS_2014.nc
HEMCO: Opening /fsx/HEMCO/CEDS/v2018-08/2014/C3H8-em-anthro_CMIP_CEDS_2014.nc
HEMCO: Opening /fsx/HEMCO/CEDS/v2018-08/2014/ALK4_butanes-em-anthro_CMIP_CEDS_2014.nc
HEMCO: Opening /fsx/HEMCO/CEDS/v2018-08/2014/ALK4_pentanes-em-anthro_CMIP_CEDS_2014.nc
HEMCO: Opening /fsx/HEMCO/CEDS/v2018-08/2014/ALK4_hexanes-em-anthro_CMIP_CEDS_2014.nc
HEMCO: Opening /fsx/HEMCO/CEDS/v2018-08/2014/PRPE-em-anthro_CMIP_CEDS_2014.nc
HEMCO: Opening /fsx/HEMCO/CEDS/v2018-08/2014/BENZ-em-anthro_CMIP_CEDS_2014.nc
HEMCO: Opening /fsx/HEMCO/CEDS/v2018-08/2014/TOLU-em-anthro_CMIP_CEDS_2014.nc
HEMCO: Opening /fsx/HEMCO/CEDS/v2018-08/2014/XYLE-em-anthro_CMIP_CEDS_2014.nc
HEMCO: Opening /fsx/HEMCO/CEDS/v2018-08/2014/CH2O-em-anthro_CMIP_CEDS_2014.nc
HEMCO: Opening /fsx/HEMCO/CEDS/v2018-08/2014/ALD2-em-anthro_CMIP_CEDS_2014.nc
HEMCO: Opening /fsx/HEMCO/CEDS/v2018-08/2014/MEK-em-anthro_CMIP_CEDS_2014.nc
HEMCO: Opening /fsx/HEMCO/CEDS/v2018-08/2014/HCOOH-em-anthro_CMIP_CEDS_2014.nc
HEMCO: Opening /fsx/HEMCO/CEDS/v2018-08/2014/NO-em-anthro_CMIP_CEDS_2014.nc
HEMCO: Opening /fsx/HEMCO/AEIC/v2015-01/AEIC.47L.gen.1x1.nc
HEMCO: Opening /fsx/HEMCO/ALD2/v2017-03/resp.geos.2x25.nc
HEMCO: Opening /fsx/HEMCO/DMS/v2015-07/DMS_lana.geos.1x1.nc
HEMCO: Opening /fsx/HEMCO/ALD2/v2017-03/ALD2_seawater.geos.2x25.nc
HEMCO: Opening /fsx/HEMCO/DUST_DEAD/v2014-07/dst_tvbds.geos.4x5.nc
HEMCO: Opening /fsx/HEMCO/DUST_DEAD/v2018-04/PM25FINE_ECLIPSE_2015.geos.2x25.nc
HEMCO: Opening /fsx/HEMCO/SOA/v2014-07/NVOC.geos.1x1.nc
HEMCO: Opening /fsx/HEMCO/GFED4/v2015-10/2016/GFED4_gen.025x025.201601.nc
HEMCO: Opening /fsx/HEMCO/UVALBEDO/v2015-03/uvalbedo.geos.2x25.nc
HEMCO: Opening /fsx/HEMCO/GMI/v2015-02/gmi.clim.ACET.geos5.2x25.nc
HEMCO: Opening /fsx/HEMCO/GMI/v2015-02/gmi.clim.ACTA.geos5.2x25.nc
HEMCO: Opening /fsx/HEMCO/GMI/v2015-02/gmi.clim.ALD2.geos5.2x25.nc
HEMCO: Opening /fsx/HEMCO/GMI/v2015-02/gmi.clim.ALK4.geos5.2x25.nc
HEMCO: Opening /fsx/HEMCO/GMI/v2015-02/gmi.clim.C2H6.geos5.2x25.nc
HEMCO: Opening /fsx/HEMCO/GMI/v2015-02/gmi.clim.C3H8.geos5.2x25.nc
HEMCO: Opening /fsx/HEMCO/GMI/v2015-02/gmi.clim.CCl4.geos5.2x25.nc
HEMCO: Opening /fsx/HEMCO/GMI/v2015-02/gmi.clim.CF2Cl2.geos5.2x25.nc
HEMCO: Opening /fsx/HEMCO/GMI/v2015-02/gmi.clim.CF2ClBr.geos5.2x25.nc
HEMCO: Opening /fsx/HEMCO/GMI/v2015-02/gmi.clim.CFC113.geos5.2x25.nc
HEMCO: Opening /fsx/HEMCO/GMI/v2015-02/gmi.clim.CFC114.geos5.2x25.nc
HEMCO: Opening /fsx/HEMCO/GMI/v2015-02/gmi.clim.CFC115.geos5.2x25.nc
HEMCO: Opening /fsx/HEMCO/GMI/v2015-02/gmi.clim.CFCl3.geos5.2x25.nc
HEMCO: Opening /fsx/HEMCO/GMI/v2015-02/gmi.clim.CH2O.geos5.2x25.nc
HEMCO: Opening /fsx/HEMCO/GMI/v2015-02/gmi.clim.CH3CCl3.geos5.2x25.nc
HEMCO: Opening /fsx/HEMCO/GMI/v2015-02/gmi.clim.CH3Cl.geos5.2x25.nc
HEMCO: Opening /fsx/HEMCO/GMI/v2015-02/gmi.clim.CH4.geos5.2x25.nc
HEMCO: Opening /fsx/HEMCO/GMI/v2015-02/gmi.clim.CO.geos5.2x25.nc
HEMCO: Opening /fsx/HEMCO/GMI/v2015-02/gmi.clim.Cl.geos5.2x25.nc
HEMCO: Opening /fsx/HEMCO/GMI/v2015-02/gmi.clim.Cl2.geos5.2x25.nc
HEMCO: Opening /fsx/HEMCO/GMI/v2015-02/gmi.clim.Cl2O2.geos5.2x25.nc
HEMCO: Opening /fsx/HEMCO/GMI/v2015-02/gmi.clim.ClO.geos5.2x25.nc
HEMCO: Opening /fsx/HEMCO/GMI/v2015-02/gmi.clim.EOH.geos5.2x25.nc
HEMCO: Opening /fsx/HEMCO/GMI/v2015-02/gmi.clim.GLYC.geos5.2x25.nc
HEMCO: Opening /fsx/HEMCO/GMI/v2015-02/gmi.clim.GLYX.geos5.2x25.nc
HEMCO: Opening /fsx/HEMCO/GMI/v2015-02/gmi.clim.H2402.geos5.2x25.nc
HEMCO: Opening /fsx/HEMCO/GMI/v2015-02/gmi.clim.H2O.geos5.2x25.nc
HEMCO: Opening /fsx/HEMCO/GMI/v2015-02/gmi.clim.H2O2.geos5.2x25.nc
HEMCO: Opening /fsx/HEMCO/GMI/v2015-02/gmi.clim.HAC.geos5.2x25.nc
HEMCO: Opening /fsx/HEMCO/GMI/v2015-02/gmi.clim.HCFC141b.geos5.2x25.nc
HEMCO: Opening /fsx/HEMCO/GMI/v2015-02/gmi.clim.HCFC142b.geos5.2x25.nc
HEMCO: Opening /fsx/HEMCO/GMI/v2015-02/gmi.clim.HCFC22.geos5.2x25.nc
HEMCO: Opening /fsx/HEMCO/GMI/v2015-02/gmi.clim.HCOOH.geos5.2x25.20170108.nc
HEMCO: Opening /fsx/HEMCO/GMI/v2015-02/gmi.clim.HCl.geos5.2x25.nc
HEMCO: Opening /fsx/HEMCO/GMI/v2015-02/gmi.clim.HNO2.geos5.2x25.nc
HEMCO: Opening /fsx/HEMCO/GMI/v2015-02/gmi.clim.HNO3.geos5.2x25.nc
HEMCO: Opening /fsx/HEMCO/GMI/v2015-02/gmi.clim.HNO4.geos5.2x25.nc
HEMCO: Opening /fsx/HEMCO/GMI/v2015-02/gmi.clim.HOCl.geos5.2x25.nc
HEMCO: Opening /fsx/HEMCO/GMI/v2015-02/gmi.clim.ISN1.geos5.2x25.nc
HEMCO: Opening /fsx/HEMCO/GMI/v2015-02/gmi.clim.ISOP.geos5.2x25.nc
HEMCO: Opening /fsx/HEMCO/GMI/v2015-02/gmi.clim.MACR.geos5.2x25.nc
HEMCO: Opening /fsx/HEMCO/GMI/v2015-02/gmi.clim.MAP.geos5.2x25.nc
HEMCO: Opening /fsx/HEMCO/GMI/v2015-02/gmi.clim.MEK.geos5.2x25.nc
HEMCO: Opening /fsx/HEMCO/GMI/v2015-02/gmi.clim.MGLY.geos5.2x25.nc
HEMCO: Opening /fsx/HEMCO/GMI/v2015-02/gmi.clim.MP.geos5.2x25.nc
HEMCO: Opening /fsx/HEMCO/GMI/v2015-02/gmi.clim.MVK.geos5.2x25.nc
HEMCO: Opening /fsx/HEMCO/GMI/v2015-02/gmi.clim.N2O.geos5.2x25.nc
HEMCO: Opening /fsx/HEMCO/GMI/v2015-02/gmi.clim.N2O5.geos5.2x25.nc
HEMCO: Opening /fsx/HEMCO/GMI/v2015-02/gmi.clim.NO.geos5.2x25.nc
HEMCO: Opening /fsx/HEMCO/GMI/v2015-02/gmi.clim.NO2.geos5.2x25.nc
HEMCO: Opening /fsx/HEMCO/GMI/v2015-02/gmi.clim.NO3.geos5.2x25.nc
HEMCO: Opening /fsx/HEMCO/GMI/v2015-02/gmi.clim.O3.geos5.2x25.nc
HEMCO: Opening /fsx/HEMCO/GMI/v2015-02/gmi.clim.OClO.geos5.2x25.nc
HEMCO: Opening /fsx/HEMCO/GMI/v2015-02/gmi.clim.PAN.geos5.2x25.nc
HEMCO: Opening /fsx/HEMCO/GMI/v2015-02/gmi.clim.NPMN.geos5.2x25.nc
HEMCO: Opening /fsx/HEMCO/GMI/v2015-02/gmi.clim.IPMN.geos5.2x25.nc
HEMCO: Opening /fsx/HEMCO/GMI/v2015-02/gmi.clim.PPN.geos5.2x25.nc
HEMCO: Opening /fsx/HEMCO/GMI/v2015-02/gmi.clim.PRPE.geos5.2x25.nc
HEMCO: Opening /fsx/HEMCO/GMI/v2015-02/gmi.clim.R4N2.geos5.2x25.nc
HEMCO: Opening /fsx/HEMCO/GMI/v2015-02/gmi.clim.RCHO.geos5.2x25.nc
HEMCO: Opening /fsx/HEMCO/GMI/v2015-02/gmi.clim.RIPA.geos5.2x25.nc
HEMCO: Opening /fsx/HEMCO/GMI/v2015-02/gmi.clim.RIPB.geos5.2x25.nc
HEMCO: Opening /fsx/HEMCO/GMI/v2015-02/gmi.clim.RIPD.geos5.2x25.nc
HEMCO: Opening /fsx/HEMCO/GMI/v2015-02/gmi.clim.OH.geos5.2x25.nc
HEMCO: Opening /fsx/HEMCO/NOAA_GMD/v2018-01/monthly.gridded.surface.methane.1979-2020.1x1.nc
HEMCO: Opening /fsx/HEMCO/GEIA/v2014-07/GEIA_monthscal.generic.1x1.nc
HEMCO: Opening /fsx/HEMCO/EMEP/v2015-03/EMEP.Seasonal.geos.1x1.nc
HEMCO: Opening /fsx/HEMCO/BROMINE/v2015-02/BromoCarb_Season.nc
HEMCO: Opening /fsx/HEMCO/EDGARv43/v2016-11/EDGAR_v43.Seasonal.1x1.nc
HEMCO: Opening /fsx/HEMCO/NEI2005/v2014-09/scaling/NEI99.dow.geos.1x1.nc
HEMCO: Opening /fsx/HEMCO/VOLCANO/v2015-02/2009/volc_so2_gen.1x1.47L.200901.nc
HEMCO: Opening /fsx/HEMCO/SOILNOX/v2014-07/soilNOx.fert_res.generic.05x05.nc
 vdinti: pbl height will be limited to bottom           25  model levels. top is
     431.250100000000       hpa
 =================================================
 W R F - G C   T I M E R S
    Domain           1 (Units: s)
 =================================================
  => Coupler Component                       0.065
   -- Physics & Parameterization             0.010
   -- Diagnostics Out                        0.000
  => GEOS-Chem Column                      136.739
  ===> Total Chemistry                     136.804
  => WRF                                    17.282
  ===> Total WRF-GC                        154.086
 max optd  1.9364301E+31
 max taucldi  7.3069595E-02
 max taucldw  1.5396417E-05
 Switching is not necessary as we are already
 in the right domain!
 GIGC_Chunk_Run: Running for in-PET grid #           1
 GIGC_Chunk_Run: Received new grid IM, JM, LM =          15           9
          49
 =================================================
 W R F - G C   T I M E R S
    Domain           1 (Units: s)
 =================================================
  => Coupler Component                       0.098
   -- Physics & Parameterization             0.019
   -- Diagnostics Out                        0.000
  => GEOS-Chem Column                      137.981
  ===> Total Chemistry                     138.079
  => WRF                                    54.145
  ===> Total WRF-GC                        192.225
 max optd  1.9364301E+31
 max taucldi  6.8876363E-02
 max taucldw  3.2806172E-05
 Switching is not necessary as we are already
 in the right domain!
 GIGC_Chunk_Run: Running for in-PET grid #           1
 GIGC_Chunk_Run: Received new grid IM, JM, LM =          15           9
          49
 =================================================
 W R F - G C   T I M E R S
    Domain           1 (Units: s)
 =================================================
  => Coupler Component                       0.130
   -- Physics & Parameterization             0.031
   -- Diagnostics Out                        0.000
  => GEOS-Chem Column                      139.142
  ===> Total Chemistry                     139.272
  => WRF                                    74.757
  ===> Total WRF-GC                        214.029
 max optd  1.9364301E+31
 max taucldi  0.1169142    
 max taucldw  5.0282575E-05
 Switching is not necessary as we are already
 in the right domain!
 GIGC_Chunk_Run: Running for in-PET grid #           1
 GIGC_Chunk_Run: Received new grid IM, JM, LM =          15           9
          49
 =================================================
 W R F - G C   T I M E R S
    Domain           1 (Units: s)
 =================================================
  => Coupler Component                       0.160
   -- Physics & Parameterization             0.040
   -- Diagnostics Out                        0.000
  => GEOS-Chem Column                      140.293
  ===> Total Chemistry                     140.454
  => WRF                                    93.675
  ===> Total WRF-GC                        234.128
 max optd  1.9364301E+31
 max taucldi  0.1689473    
 max taucldw  6.4581211E-05
 Switching is not necessary as we are already
 in the right domain!
 GIGC_Chunk_Run: Running for in-PET grid #           1
 GIGC_Chunk_Run: Received new grid IM, JM, LM =          15           9
          49
 =================================================
 W R F - G C   T I M E R S
    Domain           1 (Units: s)
 =================================================
  => Coupler Component                       0.194
   -- Physics & Parameterization             0.049
   -- Diagnostics Out                        0.000
  => GEOS-Chem Column                      141.483
  ===> Total Chemistry                     141.677
  => WRF                                   112.161
  ===> Total WRF-GC                        253.838
 max optd  1.9364301E+31
 max taucldi  0.1780563    
 max taucldw  7.6606339E-05
 Switching is not necessary as we are already
 in the right domain!
 GIGC_Chunk_Run: Running for in-PET grid #           1
 GIGC_Chunk_Run: Received new grid IM, JM, LM =          15           9
          49
 =================================================
 W R F - G C   T I M E R S
    Domain           1 (Units: s)
 =================================================
  => Coupler Component                       0.228
   -- Physics & Parameterization             0.059
   -- Diagnostics Out                        0.000
  => GEOS-Chem Column                      142.635
  ===> Total Chemistry                     142.863
  => WRF                                   130.482
  ===> Total WRF-GC                        273.346
 max optd  1.9364301E+31
 max taucldi  0.1802330    
 max taucldw  8.3588151E-05
 Switching is not necessary as we are already
 in the right domain!
 GIGC_Chunk_Run: Running for in-PET grid #           1
 GIGC_Chunk_Run: Received new grid IM, JM, LM =          15           9
          49
 =================================================
 W R F - G C   T I M E R S
    Domain           1 (Units: s)
 =================================================
  => Coupler Component                       0.259
   -- Physics & Parameterization             0.068
   -- Diagnostics Out                        0.000
  => GEOS-Chem Column                      143.797
  ===> Total Chemistry                     144.056
  => WRF                                   148.833
  ===> Total WRF-GC                        292.889
 max optd  1.9364301E+31
 max taucldi  0.1797056    
 max taucldw  9.2599752E-05
 Switching is not necessary as we are already
 in the right domain!
 GIGC_Chunk_Run: Running for in-PET grid #           1
 GIGC_Chunk_Run: Received new grid IM, JM, LM =          15           9
          49
 =================================================
 W R F - G C   T I M E R S
    Domain           1 (Units: s)
 =================================================
  => Coupler Component                       0.290
   -- Physics & Parameterization             0.078
   -- Diagnostics Out                        0.000
  => GEOS-Chem Column                      144.859
  ===> Total Chemistry                     145.149
  => WRF                                   167.106
  ===> Total WRF-GC                        312.255
 max optd  1.9364301E+31
 max taucldi  0.1874939    
 max taucldw  9.9513381E-05
 Switching is not necessary as we are already
 in the right domain!
 GIGC_Chunk_Run: Running for in-PET grid #           1
 GIGC_Chunk_Run: Received new grid IM, JM, LM =          15           9
          49
 =================================================
 W R F - G C   T I M E R S
    Domain           1 (Units: s)
 =================================================
  => Coupler Component                       0.322
   -- Physics & Parameterization             0.087
   -- Diagnostics Out                        0.000
  => GEOS-Chem Column                      145.885
  ===> Total Chemistry                     146.207
  => WRF                                   185.481
  ===> Total WRF-GC                        331.689
 max optd  1.9364301E+31
 max taucldi  0.2432258    
 max taucldw  1.0171448E-04
 Switching is not necessary as we are already
 in the right domain!
 GIGC_Chunk_Run: Running for in-PET grid #           1
 GIGC_Chunk_Run: Received new grid IM, JM, LM =          15           9
          49
 =================================================
 W R F - G C   T I M E R S
    Domain           1 (Units: s)
 =================================================
  => Coupler Component                       0.356
   -- Physics & Parameterization             0.097
   -- Diagnostics Out                        0.000
  => GEOS-Chem Column                      146.910
  ===> Total Chemistry                     147.265
  => WRF                                   203.948
  ===> Total WRF-GC                        351.213
 max optd  1.9364301E+31
 max taucldi  0.2915401    
 max taucldw  9.7156837E-05
 Switching is not necessary as we are already
 in the right domain!
 GIGC_Chunk_Run: Running for in-PET grid #           1
 GIGC_Chunk_Run: Received new grid IM, JM, LM =          15           9
          49
 =================================================
 W R F - G C   T I M E R S
    Domain           1 (Units: s)
 =================================================
  => Coupler Component                       0.387
   -- Physics & Parameterization             0.106
   -- Diagnostics Out                        0.000
  => GEOS-Chem Column                      147.936
  ===> Total Chemistry                     148.323
  => WRF                                   222.334
  ===> Total WRF-GC                        370.658
 max optd  1.9364301E+31
 max taucldi  0.3112389    
 max taucldw  9.0536116E-05
 Switching is not necessary as we are already
 in the right domain!
 GIGC_Chunk_Run: Running for in-PET grid #           1
 GIGC_Chunk_Run: Received new grid IM, JM, LM =          15           9
          49
 =================================================
 W R F - G C   T I M E R S
    Domain           1 (Units: s)
 =================================================
  => Coupler Component                       0.420
   -- Physics & Parameterization             0.115
   -- Diagnostics Out                        0.000
  => GEOS-Chem Column                      148.977
  ===> Total Chemistry                     149.396
  => WRF                                   240.610
  ===> Total WRF-GC                        390.007
 HOURLY EMISSIONS UPDATE TIME     3600.0       0.0
mediation_integrate: med_read_wrf_chem_emissions: Read emissions for time 2018-01-01_01:00:00
 max optd  1.9364301E+31
 max taucldi  0.3852577    
 max taucldw  9.0408634E-05
 Switching is not necessary as we are already
 in the right domain!
 GIGC_Chunk_Run: Running for in-PET grid #           1
 GIGC_Chunk_Run: Received new grid IM, JM, LM =          15           9
          49
 =================================================
 W R F - G C   T I M E R S
    Domain           1 (Units: s)
 =================================================
  => Coupler Component                       0.453
   -- Physics & Parameterization             0.125
   -- Diagnostics Out                        0.000
  => GEOS-Chem Column                      150.008
  ===> Total Chemistry                     150.461
  => WRF                                   258.945
  ===> Total WRF-GC                        409.405
 max optd  1.9364301E+31
 max taucldi  0.4192288    
 max taucldw  8.6130713E-05
 Switching is not necessary as we are already
 in the right domain!
 GIGC_Chunk_Run: Running for in-PET grid #           1
 GIGC_Chunk_Run: Received new grid IM, JM, LM =          15           9
          49
 =================================================
 W R F - G C   T I M E R S
    Domain           1 (Units: s)
 =================================================
  => Coupler Component                       0.486
   -- Physics & Parameterization             0.134
   -- Diagnostics Out                        0.000
  => GEOS-Chem Column                      151.050
  ===> Total Chemistry                     151.536
  => WRF                                   277.280
  ===> Total WRF-GC                        428.816
 max optd  1.9364301E+31
 max taucldi  0.4381610    
 max taucldw  7.9983110E-05
 Switching is not necessary as we are already
 in the right domain!
 GIGC_Chunk_Run: Running for in-PET grid #           1
 GIGC_Chunk_Run: Received new grid IM, JM, LM =          15           9
          49
 =================================================
 W R F - G C   T I M E R S
    Domain           1 (Units: s)
 =================================================
  => Coupler Component                       0.518
   -- Physics & Parameterization             0.144
   -- Diagnostics Out                        0.000
  => GEOS-Chem Column                      152.100
  ===> Total Chemistry                     152.618
  => WRF                                   295.482
  ===> Total WRF-GC                        448.100
 max optd  1.9364301E+31
 max taucldi  0.4391835    
 max taucldw  7.3697549E-05
 Switching is not necessary as we are already
 in the right domain!
 GIGC_Chunk_Run: Running for in-PET grid #           1
 GIGC_Chunk_Run: Received new grid IM, JM, LM =          15           9
          49
 =================================================
 W R F - G C   T I M E R S
    Domain           1 (Units: s)
 =================================================
  => Coupler Component                       0.551
   -- Physics & Parameterization             0.153
   -- Diagnostics Out                        0.000
  => GEOS-Chem Column                      153.127
  ===> Total Chemistry                     153.678
  => WRF                                   313.767
  ===> Total WRF-GC                        467.446
 max optd  1.9364301E+31
 max taucldi  0.4447538    
 max taucldw  6.8202877E-05
 Switching is not necessary as we are already
 in the right domain!
 GIGC_Chunk_Run: Running for in-PET grid #           1
 GIGC_Chunk_Run: Received new grid IM, JM, LM =          15           9
          49
 =================================================
 W R F - G C   T I M E R S
    Domain           1 (Units: s)
 =================================================
  => Coupler Component                       0.584
   -- Physics & Parameterization             0.163
   -- Diagnostics Out                        0.000
  => GEOS-Chem Column                      154.151
  ===> Total Chemistry                     154.734
  => WRF                                   332.031
  ===> Total WRF-GC                        486.765
 max optd  1.9364301E+31
 max taucldi  0.4690766    
 max taucldw  6.5257365E-05
 Switching is not necessary as we are already
 in the right domain!
 GIGC_Chunk_Run: Running for in-PET grid #           1
 GIGC_Chunk_Run: Received new grid IM, JM, LM =          15           9
          49
 =================================================
 W R F - G C   T I M E R S
    Domain           1 (Units: s)
 =================================================
  => Coupler Component                       0.618
   -- Physics & Parameterization             0.172
   -- Diagnostics Out                        0.000
  => GEOS-Chem Column                      155.191
  ===> Total Chemistry                     155.810
  => WRF                                   350.253
  ===> Total WRF-GC                        506.063
 max optd  1.9364301E+31
 max taucldi  0.4842296    
 max taucldw  7.6464552E-05
 Switching is not necessary as we are already
 in the right domain!
 GIGC_Chunk_Run: Running for in-PET grid #           1
 GIGC_Chunk_Run: Received new grid IM, JM, LM =          15           9
          49
 =================================================
 W R F - G C   T I M E R S
    Domain           1 (Units: s)
 =================================================
  => Coupler Component                       0.650
   -- Physics & Parameterization             0.182
   -- Diagnostics Out                        0.000
  => GEOS-Chem Column                      156.229
  ===> Total Chemistry                     156.879
  => WRF                                   368.547
  ===> Total WRF-GC                        525.426
 max optd  1.9364301E+31
 max taucldi  0.4626420    
 max taucldw  8.8175904E-05
 Switching is not necessary as we are already
 in the right domain!
 GIGC_Chunk_Run: Running for in-PET grid #           1
 GIGC_Chunk_Run: Received new grid IM, JM, LM =          15           9
          49
 =================================================
 W R F - G C   T I M E R S
    Domain           1 (Units: s)
 =================================================
  => Coupler Component                       0.682
   -- Physics & Parameterization             0.191
   -- Diagnostics Out                        0.000
  => GEOS-Chem Column                      157.282
  ===> Total Chemistry                     157.964
  => WRF                                   386.903
  ===> Total WRF-GC                        544.867
 max optd  1.9364301E+31
 max taucldi  0.4403452    
 max taucldw  9.8634511E-05
 Switching is not necessary as we are already
 in the right domain!
 GIGC_Chunk_Run: Running for in-PET grid #           1
 GIGC_Chunk_Run: Received new grid IM, JM, LM =          15           9
          49
 =================================================
 W R F - G C   T I M E R S
    Domain           1 (Units: s)
 =================================================
  => Coupler Component                       0.714
   -- Physics & Parameterization             0.200
   -- Diagnostics Out                        0.000
  => GEOS-Chem Column                      158.339
  ===> Total Chemistry                     159.053
  => WRF                                   405.018
  ===> Total WRF-GC                        564.071
 max optd  1.9364301E+31
 max taucldi  0.4172381    
 max taucldw  1.0658431E-04
 Switching is not necessary as we are already
 in the right domain!
 GIGC_Chunk_Run: Running for in-PET grid #           1
 GIGC_Chunk_Run: Received new grid IM, JM, LM =          15           9
          49
 =================================================
 W R F - G C   T I M E R S
    Domain           1 (Units: s)
 =================================================
  => Coupler Component                       0.747
   -- Physics & Parameterization             0.210
   -- Diagnostics Out                        0.000
  => GEOS-Chem Column                      159.392
  ===> Total Chemistry                     160.139
  => WRF                                   423.194
  ===> Total WRF-GC                        583.333
 max optd  1.9364301E+31
 max taucldi  0.3901792    
 max taucldw  1.1153178E-04
 Switching is not necessary as we are already
 in the right domain!
 GIGC_Chunk_Run: Running for in-PET grid #           1
 GIGC_Chunk_Run: Received new grid IM, JM, LM =          15           9
          49
 =================================================
 W R F - G C   T I M E R S
    Domain           1 (Units: s)
 =================================================
  => Coupler Component                       0.780
   -- Physics & Parameterization             0.219
   -- Diagnostics Out                        0.000
  => GEOS-Chem Column                      160.432
  ===> Total Chemistry                     161.212
  => WRF                                   441.487
  ===> Total WRF-GC                        602.699
 max optd  1.9364301E+31
 max taucldi  0.3811634    
 max taucldw  1.1361384E-04
 Switching is not necessary as we are already
 in the right domain!
 GIGC_Chunk_Run: Running for in-PET grid #           1
 GIGC_Chunk_Run: Received new grid IM, JM, LM =          15           9
          49
 =================================================
 W R F - G C   T I M E R S
    Domain           1 (Units: s)
 =================================================
  => Coupler Component                       0.813
   -- Physics & Parameterization             0.229
   -- Diagnostics Out                        0.000
  => GEOS-Chem Column                      161.482
  ===> Total Chemistry                     162.295
  => WRF                                   459.687
  ===> Total WRF-GC                        621.982
 HOURLY EMISSIONS UPDATE TIME     7200.0       0.0
mediation_integrate: med_read_wrf_chem_emissions: Read emissions for time 2018-01-01_02:00:00
 max optd  1.9364301E+31
 max taucldi  0.3839152    
 max taucldw  1.1402811E-04
 Switching is not necessary as we are already
 in the right domain!
 GIGC_Chunk_Run: Running for in-PET grid #           1
 GIGC_Chunk_Run: Received new grid IM, JM, LM =          15           9
          49
 =================================================
 W R F - G C   T I M E R S
    Domain           1 (Units: s)
 =================================================
  => Coupler Component                       0.849
   -- Physics & Parameterization             0.238
   -- Diagnostics Out                        0.000
  => GEOS-Chem Column                      162.520
  ===> Total Chemistry                     163.369
  => WRF                                   477.890
  ===> Total WRF-GC                        641.259
 max optd  1.9364301E+31
 max taucldi  0.3881531    
 max taucldw  1.1328536E-04
 Switching is not necessary as we are already
 in the right domain!
 GIGC_Chunk_Run: Running for in-PET grid #           1
 GIGC_Chunk_Run: Received new grid IM, JM, LM =          15           9
          49
 =================================================
 W R F - G C   T I M E R S
    Domain           1 (Units: s)
 =================================================
  => Coupler Component                       0.885
   -- Physics & Parameterization             0.248
   -- Diagnostics Out                        0.000
  => GEOS-Chem Column                      163.556
  ===> Total Chemistry                     164.441
  => WRF                                   496.135
  ===> Total WRF-GC                        660.576
 max optd  1.9364301E+31
 max taucldi  0.3723249    
 max taucldw  1.1190947E-04
 Switching is not necessary as we are already
 in the right domain!
 GIGC_Chunk_Run: Running for in-PET grid #           1
 GIGC_Chunk_Run: Received new grid IM, JM, LM =          15           9
          49
 =================================================
 W R F - G C   T I M E R S
    Domain           1 (Units: s)
 =================================================
  => Coupler Component                       0.918
   -- Physics & Parameterization             0.257
   -- Diagnostics Out                        0.000
  => GEOS-Chem Column                      164.612
  ===> Total Chemistry                     165.530
  => WRF                                   514.271
  ===> Total WRF-GC                        679.801
 max optd  1.9364301E+31
 max taucldi  0.3533438    
 max taucldw  1.1031795E-04
 Switching is not necessary as we are already
 in the right domain!
 GIGC_Chunk_Run: Running for in-PET grid #           1
 GIGC_Chunk_Run: Received new grid IM, JM, LM =          15           9
          49
 =================================================
 W R F - G C   T I M E R S
    Domain           1 (Units: s)
 =================================================
  => Coupler Component                       0.952
   -- Physics & Parameterization             0.267
   -- Diagnostics Out                        0.000
  => GEOS-Chem Column                      165.645
  ===> Total Chemistry                     166.597
  => WRF                                   532.389
  ===> Total WRF-GC                        698.986
 max optd  1.9364301E+31
 max taucldi  0.3359567    
 max taucldw  1.0860222E-04
 Switching is not necessary as we are already
 in the right domain!
 GIGC_Chunk_Run: Running for in-PET grid #           1
 GIGC_Chunk_Run: Received new grid IM, JM, LM =          15           9
          49
 =================================================
 W R F - G C   T I M E R S
    Domain           1 (Units: s)
 =================================================
  => Coupler Component                       0.986
   -- Physics & Parameterization             0.276
   -- Diagnostics Out                        0.000
  => GEOS-Chem Column                      166.700
  ===> Total Chemistry                     167.686
  => WRF                                   550.551
  ===> Total WRF-GC                        718.238
 max optd  1.9364301E+31
 max taucldi  0.3083509    
 max taucldw  1.0697295E-04
 Switching is not necessary as we are already
 in the right domain!
 GIGC_Chunk_Run: Running for in-PET grid #           1
 GIGC_Chunk_Run: Received new grid IM, JM, LM =          15           9
          49
 =================================================
 W R F - G C   T I M E R S
    Domain           1 (Units: s)
 =================================================
  => Coupler Component                       1.022
   -- Physics & Parameterization             0.286
   -- Diagnostics Out                        0.000
  => GEOS-Chem Column                      167.736
  ===> Total Chemistry                     168.758
  => WRF                                   568.688
  ===> Total WRF-GC                        737.447
 max optd  1.9364301E+31
 max taucldi  0.3213209    
 max taucldw  1.0554659E-04
 Switching is not necessary as we are already
 in the right domain!
 GIGC_Chunk_Run: Running for in-PET grid #           1
 GIGC_Chunk_Run: Received new grid IM, JM, LM =          15           9
          49
 =================================================
 W R F - G C   T I M E R S
    Domain           1 (Units: s)
 =================================================
  => Coupler Component                       1.055
   -- Physics & Parameterization             0.295
   -- Diagnostics Out                        0.000
  => GEOS-Chem Column                      168.784
  ===> Total Chemistry                     169.839
  => WRF                                   586.845
  ===> Total WRF-GC                        756.685
 max optd  1.9364301E+31
 max taucldi  0.3272955    
 max taucldw  1.0451812E-04
 Switching is not necessary as we are already
 in the right domain!
 GIGC_Chunk_Run: Running for in-PET grid #           1
 GIGC_Chunk_Run: Received new grid IM, JM, LM =          15           9
          49
 =================================================
 W R F - G C   T I M E R S
    Domain           1 (Units: s)
 =================================================
  => Coupler Component                       1.089
   -- Physics & Parameterization             0.305
   -- Diagnostics Out                        0.000
  => GEOS-Chem Column                      169.817
  ===> Total Chemistry                     170.906
  => WRF                                   604.945
  ===> Total WRF-GC                        775.851
 max optd  1.9364301E+31
 max taucldi  0.3218918    
 max taucldw  1.0401692E-04
 Switching is not necessary as we are already
 in the right domain!
 GIGC_Chunk_Run: Running for in-PET grid #           1
 GIGC_Chunk_Run: Received new grid IM, JM, LM =          15           9
          49
 =================================================
 W R F - G C   T I M E R S
    Domain           1 (Units: s)
 =================================================
  => Coupler Component                       1.122
   -- Physics & Parameterization             0.314
   -- Diagnostics Out                        0.000
  => GEOS-Chem Column                      170.869
  ===> Total Chemistry                     171.991
  => WRF                                   623.075
  ===> Total WRF-GC                        795.066
 max optd  1.9364301E+31
 max taucldi  0.3423939    
 max taucldw  1.0407482E-04
 Switching is not necessary as we are already
 in the right domain!
 GIGC_Chunk_Run: Running for in-PET grid #           1
 GIGC_Chunk_Run: Received new grid IM, JM, LM =          15           9
          49
 =================================================
 W R F - G C   T I M E R S
    Domain           1 (Units: s)
 =================================================
  => Coupler Component                       1.155
   -- Physics & Parameterization             0.324
   -- Diagnostics Out                        0.000
  => GEOS-Chem Column                      171.905
  ===> Total Chemistry                     173.061
  => WRF                                   641.224
  ===> Total WRF-GC                        814.285
 max optd  1.9364301E+31
 max taucldi  0.3788696    
 max taucldw  1.0433573E-04
 Switching is not necessary as we are already
 in the right domain!
 GIGC_Chunk_Run: Running for in-PET grid #           1
 GIGC_Chunk_Run: Received new grid IM, JM, LM =          15           9
          49
 =================================================
 W R F - G C   T I M E R S
    Domain           1 (Units: s)
 =================================================
  => Coupler Component                       1.190
   -- Physics & Parameterization             0.334
   -- Diagnostics Out                        0.000
  => GEOS-Chem Column                      172.950
  ===> Total Chemistry                     174.140
  => WRF                                   659.309
  ===> Total WRF-GC                        833.449
 max optd  1.9364301E+31
 max taucldi  0.4154366    
 max taucldw  1.0454500E-04
 Switching is not necessary as we are already
 in the right domain!
 GIGC_Chunk_Run: Running for in-PET grid #           1
 GIGC_Chunk_Run: Received new grid IM, JM, LM =          15           9
          49
 =================================================
 W R F - G C   T I M E R S
    Domain           1 (Units: s)
 =================================================
  => Coupler Component                       1.223
   -- Physics & Parameterization             0.343
   -- Diagnostics Out                        0.000
  => GEOS-Chem Column                      173.991
  ===> Total Chemistry                     175.215
  => WRF                                   677.401
  ===> Total WRF-GC                        852.615
 HOURLY EMISSIONS UPDATE TIME    10800.0       0.0
mediation_integrate: med_read_wrf_chem_emissions: Read emissions for time 2018-01-01_03:00:00
 max optd  1.9364301E+31
 max taucldi  0.4435671    
 max taucldw  1.0451112E-04
 Switching is not necessary as we are already
 in the right domain!
 GIGC_Chunk_Run: Running for in-PET grid #           1
 GIGC_Chunk_Run: Received new grid IM, JM, LM =          15           9
          49
 =================================================
 W R F - G C   T I M E R S
    Domain           1 (Units: s)
 =================================================
  => Coupler Component                       1.255
   -- Physics & Parameterization             0.353
   -- Diagnostics Out                        0.000
  => GEOS-Chem Column                      175.045
  ===> Total Chemistry                     176.300
  => WRF                                   695.549
  ===> Total WRF-GC                        871.848
 max optd  1.9364301E+31
 max taucldi  0.4648124    
 max taucldw  1.0325789E-04
 Switching is not necessary as we are already
 in the right domain!
 GIGC_Chunk_Run: Running for in-PET grid #           1
 GIGC_Chunk_Run: Received new grid IM, JM, LM =          15           9
          49
 =================================================
 W R F - G C   T I M E R S
    Domain           1 (Units: s)
 =================================================
  => Coupler Component                       1.289
   -- Physics & Parameterization             0.362
   -- Diagnostics Out                        0.000
  => GEOS-Chem Column                      176.086
  ===> Total Chemistry                     177.375
  => WRF                                   713.635
  ===> Total WRF-GC                        891.010
 max optd  1.9364301E+31
 max taucldi  0.5080430    
 max taucldw  1.0171853E-04
 Switching is not necessary as we are already
 in the right domain!
 GIGC_Chunk_Run: Running for in-PET grid #           1
 GIGC_Chunk_Run: Received new grid IM, JM, LM =          15           9
          49
 =================================================
 W R F - G C   T I M E R S
    Domain           1 (Units: s)
 =================================================
  => Coupler Component                       1.325
   -- Physics & Parameterization             0.372
   -- Diagnostics Out                        0.000
  => GEOS-Chem Column                      177.123
  ===> Total Chemistry                     178.448
  => WRF                                   731.770
  ===> Total WRF-GC                        910.219
 max optd  1.9364301E+31
 max taucldi  0.5423997    
 max taucldw  1.0024444E-04
 Switching is not necessary as we are already
 in the right domain!
 GIGC_Chunk_Run: Running for in-PET grid #           1
 GIGC_Chunk_Run: Received new grid IM, JM, LM =          15           9
          49
 =================================================
 W R F - G C   T I M E R S
    Domain           1 (Units: s)
 =================================================
  => Coupler Component                       1.360
   -- Physics & Parameterization             0.382
   -- Diagnostics Out                        0.000
  => GEOS-Chem Column                      178.163
  ===> Total Chemistry                     179.522
  => WRF                                   749.872
  ===> Total WRF-GC                        929.394
 max optd  1.9364301E+31
 max taucldi  0.5776207    
 max taucldw  9.8892488E-05
 Switching is not necessary as we are already
 in the right domain!
 GIGC_Chunk_Run: Running for in-PET grid #           1
 GIGC_Chunk_Run: Received new grid IM, JM, LM =          15           9
          49
 =================================================
 W R F - G C   T I M E R S
    Domain           1 (Units: s)
 =================================================
  => Coupler Component                       1.392
   -- Physics & Parameterization             0.391
   -- Diagnostics Out                        0.000
  => GEOS-Chem Column                      179.217
  ===> Total Chemistry                     180.610
  => WRF                                   767.951
  ===> Total WRF-GC                        948.560
 max optd  1.9364301E+31
 max taucldi  0.6193205    
 max taucldw  9.7760938E-05
 Switching is not necessary as we are already
 in the right domain!
 GIGC_Chunk_Run: Running for in-PET grid #           1
 GIGC_Chunk_Run: Received new grid IM, JM, LM =          15           9
          49
 =================================================
 W R F - G C   T I M E R S
    Domain           1 (Units: s)
 =================================================
  => Coupler Component                       1.422
   -- Physics & Parameterization             0.401
   -- Diagnostics Out                        0.000
  => GEOS-Chem Column                      180.243
  ===> Total Chemistry                     181.666
  => WRF                                   786.327
  ===> Total WRF-GC                        967.993
 max optd  1.9364301E+31
 max taucldi  0.6596842    
 max taucldw  9.7439093E-05
 Switching is not necessary as we are already
 in the right domain!
 GIGC_Chunk_Run: Running for in-PET grid #           1
 GIGC_Chunk_Run: Received new grid IM, JM, LM =          15           9
          49
 =================================================
 W R F - G C   T I M E R S
    Domain           1 (Units: s)
 =================================================
  => Coupler Component                       1.458
   -- Physics & Parameterization             0.410
   -- Diagnostics Out                        0.000
  => GEOS-Chem Column                      181.285
  ===> Total Chemistry                     182.743
  => WRF                                   804.505
  ===> Total WRF-GC                        987.249
 max optd  1.9364301E+31
 max taucldi  0.6970672    
 max taucldw  9.7896038E-05
 Switching is not necessary as we are already
 in the right domain!
 GIGC_Chunk_Run: Running for in-PET grid #           1
 GIGC_Chunk_Run: Received new grid IM, JM, LM =          15           9
          49
 =================================================
 W R F - G C   T I M E R S
    Domain           1 (Units: s)
 =================================================
  => Coupler Component                       1.489
   -- Physics & Parameterization             0.419
   -- Diagnostics Out                        0.000
  => GEOS-Chem Column                      182.313
  ===> Total Chemistry                     183.802
  => WRF                                   822.580
  ===> Total WRF-GC                       1006.382
 max optd  1.9364301E+31
 max taucldi  0.7169545    
 max taucldw  9.8773635E-05
 Switching is not necessary as we are already
 in the right domain!
 GIGC_Chunk_Run: Running for in-PET grid #           1
 GIGC_Chunk_Run: Received new grid IM, JM, LM =          15           9
          49
 =================================================
 W R F - G C   T I M E R S
    Domain           1 (Units: s)
 =================================================
  => Coupler Component                       1.522
   -- Physics & Parameterization             0.429
   -- Diagnostics Out                        0.000
  => GEOS-Chem Column                      183.369
  ===> Total Chemistry                     184.891
  => WRF                                   840.806
  ===> Total WRF-GC                       1025.697
 max optd  1.9364301E+31
 max taucldi  0.7402942    
 max taucldw  1.0006170E-04
 Switching is not necessary as we are already
 in the right domain!
 GIGC_Chunk_Run: Running for in-PET grid #           1
 GIGC_Chunk_Run: Received new grid IM, JM, LM =          15           9
          49
 =================================================
 W R F - G C   T I M E R S
    Domain           1 (Units: s)
 =================================================
  => Coupler Component                       1.553
   -- Physics & Parameterization             0.439
   -- Diagnostics Out                        0.000
  => GEOS-Chem Column                      184.430
  ===> Total Chemistry                     185.982
  => WRF                                   858.945
  ===> Total WRF-GC                       1044.927
 max optd  1.9364301E+31
 max taucldi  0.7581844    
 max taucldw  1.0187283E-04
 Switching is not necessary as we are already
 in the right domain!
 GIGC_Chunk_Run: Running for in-PET grid #           1
 GIGC_Chunk_Run: Received new grid IM, JM, LM =          15           9
          49
 =================================================
 W R F - G C   T I M E R S
    Domain           1 (Units: s)
 =================================================
  => Coupler Component                       1.585
   -- Physics & Parameterization             0.448
   -- Diagnostics Out                        0.000
  => GEOS-Chem Column                      185.489
  ===> Total Chemistry                     187.074
  => WRF                                   877.045
  ===> Total WRF-GC                       1064.119
 max optd  1.9364301E+31
 max taucldi  0.7624376    
 max taucldw  1.0392990E-04
 Switching is not necessary as we are already
 in the right domain!
 GIGC_Chunk_Run: Running for in-PET grid #           1
 GIGC_Chunk_Run: Received new grid IM, JM, LM =          15           9
          49
 =================================================
 W R F - G C   T I M E R S
    Domain           1 (Units: s)
 =================================================
  => Coupler Component                       1.616
   -- Physics & Parameterization             0.457
   -- Diagnostics Out                        0.000
  => GEOS-Chem Column                      186.557
  ===> Total Chemistry                     188.173
  => WRF                                   895.192
  ===> Total WRF-GC                       1083.365
 HOURLY EMISSIONS UPDATE TIME    14400.0       0.0
mediation_integrate: med_read_wrf_chem_emissions: Read emissions for time 2018-01-01_04:00:00
 max optd  1.9364301E+31
 max taucldi  0.7776024    
 max taucldw  1.0595439E-04
 Switching is not necessary as we are already
 in the right domain!
 GIGC_Chunk_Run: Running for in-PET grid #           1
 GIGC_Chunk_Run: Received new grid IM, JM, LM =          15           9
          49
 =================================================
 W R F - G C   T I M E R S
    Domain           1 (Units: s)
 =================================================
  => Coupler Component                       1.647
   -- Physics & Parameterization             0.467
   -- Diagnostics Out                        0.000
  => GEOS-Chem Column                      187.622
  ===> Total Chemistry                     189.269
  => WRF                                   913.331
  ===> Total WRF-GC                       1102.600
 max optd  1.9364301E+31
 max taucldi  0.7823236    
 max taucldw  1.0789747E-04
 Switching is not necessary as we are already
 in the right domain!
 GIGC_Chunk_Run: Running for in-PET grid #           1
 GIGC_Chunk_Run: Received new grid IM, JM, LM =          15           9
          49
 =================================================
 W R F - G C   T I M E R S
    Domain           1 (Units: s)
 =================================================
  => Coupler Component                       1.680
   -- Physics & Parameterization             0.477
   -- Diagnostics Out                        0.000
  => GEOS-Chem Column                      188.681
  ===> Total Chemistry                     190.361
  => WRF                                   931.457
  ===> Total WRF-GC                       1121.819
 max optd  1.9364301E+31
 max taucldi  0.7969619    
 max taucldw  1.0968003E-04
 Switching is not necessary as we are already
 in the right domain!
 GIGC_Chunk_Run: Running for in-PET grid #           1
 GIGC_Chunk_Run: Received new grid IM, JM, LM =          15           9
          49
 =================================================
 W R F - G C   T I M E R S
    Domain           1 (Units: s)
 =================================================
  => Coupler Component                       1.713
   -- Physics & Parameterization             0.486
   -- Diagnostics Out                        0.000
  => GEOS-Chem Column                      189.746
  ===> Total Chemistry                     191.459
  => WRF                                   949.681
  ===> Total WRF-GC                       1141.140
 max optd  1.9364301E+31
 max taucldi  0.8142326    
 max taucldw  1.1126979E-04
 Switching is not necessary as we are already
 in the right domain!
 GIGC_Chunk_Run: Running for in-PET grid #           1
 GIGC_Chunk_Run: Received new grid IM, JM, LM =          15           9
          49
 =================================================
 W R F - G C   T I M E R S
    Domain           1 (Units: s)
 =================================================
  => Coupler Component                       1.743
   -- Physics & Parameterization             0.495
   -- Diagnostics Out                        0.000
  => GEOS-Chem Column                      190.817
  ===> Total Chemistry                     192.560
  => WRF                                   967.784
  ===> Total WRF-GC                       1160.344
 max optd  1.9364301E+31
 max taucldi  0.7908153    
 max taucldw  1.1259880E-04
 Switching is not necessary as we are already
 in the right domain!
 GIGC_Chunk_Run: Running for in-PET grid #           1
 GIGC_Chunk_Run: Received new grid IM, JM, LM =          15           9
          49
 =================================================
 W R F - G C   T I M E R S
    Domain           1 (Units: s)
 =================================================
  => Coupler Component                       1.773
   -- Physics & Parameterization             0.505
   -- Diagnostics Out                        0.000
  => GEOS-Chem Column                      191.886
  ===> Total Chemistry                     193.660
  => WRF                                   985.937
  ===> Total WRF-GC                       1179.596
 max optd  1.9364301E+31
 max taucldi  0.7551363    
 max taucldw  1.1331572E-04
 Switching is not necessary as we are already
 in the right domain!
 GIGC_Chunk_Run: Running for in-PET grid #           1
 GIGC_Chunk_Run: Received new grid IM, JM, LM =          15           9
          49
 =================================================
 W R F - G C   T I M E R S
    Domain           1 (Units: s)
 =================================================
  => Coupler Component                       1.806
   -- Physics & Parameterization             0.514
   -- Diagnostics Out                        0.000
  => GEOS-Chem Column                      192.942
  ===> Total Chemistry                     194.748
  => WRF                                  1004.067
  ===> Total WRF-GC                       1198.815
 max optd  1.9364301E+31
 max taucldi  0.7186571    
 max taucldw  1.1336947E-04
 Switching is not necessary as we are already
 in the right domain!
 GIGC_Chunk_Run: Running for in-PET grid #           1
 GIGC_Chunk_Run: Received new grid IM, JM, LM =          15           9
          49
 =================================================
 W R F - G C   T I M E R S
    Domain           1 (Units: s)
 =================================================
  => Coupler Component                       1.838
   -- Physics & Parameterization             0.524
   -- Diagnostics Out                        0.000
  => GEOS-Chem Column                      193.998
  ===> Total Chemistry                     195.836
  => WRF                                  1022.263
  ===> Total WRF-GC                       1218.099
 max optd  1.9364301E+31
 max taucldi  0.6831479    
 max taucldw  1.1336880E-04
 Switching is not necessary as we are already
 in the right domain!
 GIGC_Chunk_Run: Running for in-PET grid #           1
 GIGC_Chunk_Run: Received new grid IM, JM, LM =          15           9
          49
 =================================================
 W R F - G C   T I M E R S
    Domain           1 (Units: s)
 =================================================
  => Coupler Component                       1.872
   -- Physics & Parameterization             0.533
   -- Diagnostics Out                        0.000
  => GEOS-Chem Column                      195.043
  ===> Total Chemistry                     196.915
  => WRF                                  1040.374
  ===> Total WRF-GC                       1237.289
 max optd  1.9364301E+31
 max taucldi  0.6601752    
 max taucldw  1.1375167E-04
 Switching is not necessary as we are already
 in the right domain!
 GIGC_Chunk_Run: Running for in-PET grid #           1
 GIGC_Chunk_Run: Received new grid IM, JM, LM =          15           9
          49
 =================================================
 W R F - G C   T I M E R S
    Domain           1 (Units: s)
 =================================================
  => Coupler Component                       1.903
   -- Physics & Parameterization             0.543
   -- Diagnostics Out                        0.000
  => GEOS-Chem Column                      196.094
  ===> Total Chemistry                     197.997
  => WRF                                  1058.522
  ===> Total WRF-GC                       1256.519
 max optd  1.9364301E+31
 max taucldi  0.6491238    
 max taucldw  1.1463469E-04
 Switching is not necessary as we are already
 in the right domain!
 GIGC_Chunk_Run: Running for in-PET grid #           1
 GIGC_Chunk_Run: Received new grid IM, JM, LM =          15           9
          49
 =================================================
 W R F - G C   T I M E R S
    Domain           1 (Units: s)
 =================================================
  => Coupler Component                       1.935
   -- Physics & Parameterization             0.552
   -- Diagnostics Out                        0.000
  => GEOS-Chem Column                      197.153
  ===> Total Chemistry                     199.087
  => WRF                                  1076.664
  ===> Total WRF-GC                       1275.751
 max optd  1.9364301E+31
 max taucldi  0.6337692    
 max taucldw  1.1604484E-04
 Switching is not necessary as we are already
 in the right domain!
 GIGC_Chunk_Run: Running for in-PET grid #           1
 GIGC_Chunk_Run: Received new grid IM, JM, LM =          15           9
          49
 =================================================
 W R F - G C   T I M E R S
    Domain           1 (Units: s)
 =================================================
  => Coupler Component                       1.967
   -- Physics & Parameterization             0.562
   -- Diagnostics Out                        0.000
  => GEOS-Chem Column                      198.196
  ===> Total Chemistry                     200.162
  => WRF                                  1094.760
  ===> Total WRF-GC                       1294.922
 max optd  1.9364301E+31
 max taucldi  0.6167668    
 max taucldw  1.1791898E-04
 Switching is not necessary as we are already
 in the right domain!
 GIGC_Chunk_Run: Running for in-PET grid #           1
 GIGC_Chunk_Run: Received new grid IM, JM, LM =          15           9
          49
 =================================================
 W R F - G C   T I M E R S
    Domain           1 (Units: s)
 =================================================
  => Coupler Component                       1.999
   -- Physics & Parameterization             0.572
   -- Diagnostics Out                        0.000
  => GEOS-Chem Column                      199.244
  ===> Total Chemistry                     201.243
  => WRF                                  1112.815
  ===> Total WRF-GC                       1314.058
 HOURLY EMISSIONS UPDATE TIME    18000.0       0.0
mediation_integrate: med_read_wrf_chem_emissions: Read emissions for time 2018-01-01_05:00:00
 max optd  1.9364301E+31
 max taucldi  0.6014572    
 max taucldw  1.1998469E-04
 Switching is not necessary as we are already
 in the right domain!
 GIGC_Chunk_Run: Running for in-PET grid #           1
 GIGC_Chunk_Run: Received new grid IM, JM, LM =          15           9
          49
 =================================================
 W R F - G C   T I M E R S
    Domain           1 (Units: s)
 =================================================
  => Coupler Component                       2.031
   -- Physics & Parameterization             0.581
   -- Diagnostics Out                        0.000
  => GEOS-Chem Column                      200.307
  ===> Total Chemistry                     202.337
  => WRF                                  1131.012
  ===> Total WRF-GC                       1333.349
 max optd  1.9364301E+31
 max taucldi  0.5925704    
 max taucldw  1.2200599E-04
 Switching is not necessary as we are already
 in the right domain!
 GIGC_Chunk_Run: Running for in-PET grid #           1
 GIGC_Chunk_Run: Received new grid IM, JM, LM =          15           9
          49
 =================================================
 W R F - G C   T I M E R S
    Domain           1 (Units: s)
 =================================================
  => Coupler Component                       2.064
   -- Physics & Parameterization             0.591
   -- Diagnostics Out                        0.000
  => GEOS-Chem Column                      201.357
  ===> Total Chemistry                     203.421
  => WRF                                  1149.110
  ===> Total WRF-GC                       1352.531
 max optd  1.9364301E+31
 max taucldi  0.5858766    
 max taucldw  1.2364799E-04
 Switching is not necessary as we are already
 in the right domain!
 GIGC_Chunk_Run: Running for in-PET grid #           1
 GIGC_Chunk_Run: Received new grid IM, JM, LM =          15           9
          49
 =================================================
 W R F - G C   T I M E R S
    Domain           1 (Units: s)
 =================================================
  => Coupler Component                       2.098
   -- Physics & Parameterization             0.601
   -- Diagnostics Out                        0.000
  => GEOS-Chem Column                      202.393
  ===> Total Chemistry                     204.491
  => WRF                                  1167.207
  ===> Total WRF-GC                       1371.698
 max optd  1.9364301E+31
 max taucldi  0.5833616    
 max taucldw  1.2465249E-04
 Switching is not necessary as we are already
 in the right domain!
 GIGC_Chunk_Run: Running for in-PET grid #           1
 GIGC_Chunk_Run: Received new grid IM, JM, LM =          15           9
          49
 =================================================
 W R F - G C   T I M E R S
    Domain           1 (Units: s)
 =================================================
  => Coupler Component                       2.132
   -- Physics & Parameterization             0.610
   -- Diagnostics Out                        0.000
  => GEOS-Chem Column                      203.445
  ===> Total Chemistry                     205.576
  => WRF                                  1185.380
  ===> Total WRF-GC                       1390.956
 max optd  1.9364301E+31
 max taucldi  0.5788207    
 max taucldw  1.2459239E-04
 Switching is not necessary as we are already
 in the right domain!
 GIGC_Chunk_Run: Running for in-PET grid #           1
 GIGC_Chunk_Run: Received new grid IM, JM, LM =          15           9
          49
 =================================================
 W R F - G C   T I M E R S
    Domain           1 (Units: s)
 =================================================
  => Coupler Component                       2.163
   -- Physics & Parameterization             0.620
   -- Diagnostics Out                        0.000
  => GEOS-Chem Column                      204.491
  ===> Total Chemistry                     206.654
  => WRF                                  1203.569
  ===> Total WRF-GC                       1410.224
 max optd  1.9364301E+31
 max taucldi  0.5680357    
 max taucldw  1.2363422E-04
 Switching is not necessary as we are already
 in the right domain!
 GIGC_Chunk_Run: Running for in-PET grid #           1
 GIGC_Chunk_Run: Received new grid IM, JM, LM =          15           9
          49
 =================================================
 W R F - G C   T I M E R S
    Domain           1 (Units: s)
 =================================================
  => Coupler Component                       2.197
   -- Physics & Parameterization             0.629
   -- Diagnostics Out                        0.000
  => GEOS-Chem Column                      205.535
  ===> Total Chemistry                     207.732
  => WRF                                  1221.664
  ===> Total WRF-GC                       1429.396
 max optd  1.9364301E+31
 max taucldi  0.5521955    
 max taucldw  1.2220476E-04
 Switching is not necessary as we are already
 in the right domain!
 GIGC_Chunk_Run: Running for in-PET grid #           1
 GIGC_Chunk_Run: Received new grid IM, JM, LM =          15           9
          49
 =================================================
 W R F - G C   T I M E R S
    Domain           1 (Units: s)
 =================================================
  => Coupler Component                       2.234
   -- Physics & Parameterization             0.638
   -- Diagnostics Out                        0.000
  => GEOS-Chem Column                      206.570
  ===> Total Chemistry                     208.804
  => WRF                                  1239.869
  ===> Total WRF-GC                       1448.673
 max optd  1.9364301E+31
 max taucldi  0.5327561    
 max taucldw  1.2025308E-04
 Switching is not necessary as we are already
 in the right domain!
 GIGC_Chunk_Run: Running for in-PET grid #           1
 GIGC_Chunk_Run: Received new grid IM, JM, LM =          15           9
          49
 =================================================
 W R F - G C   T I M E R S
    Domain           1 (Units: s)
 =================================================
  => Coupler Component                       2.267
   -- Physics & Parameterization             0.648
   -- Diagnostics Out                        0.000
  => GEOS-Chem Column                      207.622
  ===> Total Chemistry                     209.889
  => WRF                                  1258.003
  ===> Total WRF-GC                       1467.892
 max optd  1.9364301E+31
 max taucldi  0.5134385    
 max taucldw  1.1805232E-04
 Switching is not necessary as we are already
 in the right domain!
 GIGC_Chunk_Run: Running for in-PET grid #           1
 GIGC_Chunk_Run: Received new grid IM, JM, LM =          15           9
          49
 =================================================
 W R F - G C   T I M E R S
    Domain           1 (Units: s)
 =================================================
  => Coupler Component                       2.300
   -- Physics & Parameterization             0.657
   -- Diagnostics Out                        0.000
  => GEOS-Chem Column                      208.659
  ===> Total Chemistry                     210.959
  => WRF                                  1276.178
  ===> Total WRF-GC                       1487.137
 max optd  1.9364301E+31
 max taucldi  0.4965065    
 max taucldw  1.1611261E-04
 Switching is not necessary as we are already
 in the right domain!
 GIGC_Chunk_Run: Running for in-PET grid #           1
 GIGC_Chunk_Run: Received new grid IM, JM, LM =          15           9
          49
 =================================================
 W R F - G C   T I M E R S
    Domain           1 (Units: s)
 =================================================
  => Coupler Component                       2.332
   -- Physics & Parameterization             0.667
   -- Diagnostics Out                        0.000
  => GEOS-Chem Column                      209.710
  ===> Total Chemistry                     212.042
  => WRF                                  1294.605
  ===> Total WRF-GC                       1506.647
 max optd  1.9364301E+31
 max taucldi  0.4835073    
 max taucldw  1.1479762E-04
 Switching is not necessary as we are already
 in the right domain!
 GIGC_Chunk_Run: Running for in-PET grid #           1
 GIGC_Chunk_Run: Received new grid IM, JM, LM =          15           9
          49
 =================================================
 W R F - G C   T I M E R S
    Domain           1 (Units: s)
 =================================================
  => Coupler Component                       2.365
   -- Physics & Parameterization             0.676
   -- Diagnostics Out                        0.000
  => GEOS-Chem Column                      210.760
  ===> Total Chemistry                     213.124
  => WRF                                  1312.745
  ===> Total WRF-GC                       1525.870
 max optd  1.9364301E+31
 max taucldi  0.4719164    
 max taucldw  1.1448718E-04
 Switching is not necessary as we are already
 in the right domain!
 GIGC_Chunk_Run: Running for in-PET grid #           1
 GIGC_Chunk_Run: Received new grid IM, JM, LM =          15           9
          49
 =================================================
 W R F - G C   T I M E R S
    Domain           1 (Units: s)
 =================================================
  => Coupler Component                       2.398
   -- Physics & Parameterization             0.686
   -- Diagnostics Out                        0.000
  => GEOS-Chem Column                      211.797
  ===> Total Chemistry                     214.195
  => WRF                                  1330.879
  ===> Total WRF-GC                       1545.075
 HOURLY EMISSIONS UPDATE TIME    21600.0       0.0
mediation_integrate: med_read_wrf_chem_emissions: Read emissions for time 2018-01-01_06:00:00
 max optd  1.9364301E+31
 max taucldi  0.4614232    
 max taucldw  1.1495773E-04
 Switching is not necessary as we are already
 in the right domain!
 GIGC_Chunk_Run: Running for in-PET grid #           1
 GIGC_Chunk_Run: Received new grid IM, JM, LM =          15           9
          49
 =================================================
 W R F - G C   T I M E R S
    Domain           1 (Units: s)
 =================================================
  => Coupler Component                       2.432
   -- Physics & Parameterization             0.695
   -- Diagnostics Out                        0.000
  => GEOS-Chem Column                      212.847
  ===> Total Chemistry                     215.279
  => WRF                                  1789.579
  ===> Total WRF-GC                       2004.858
 max optd  1.9364301E+31
 max taucldi  0.4596503    
 max taucldw  1.1614729E-04
 Switching is not necessary as we are already
 in the right domain!
 GIGC_Chunk_Run: Running for in-PET grid #           1
 GIGC_Chunk_Run: Received new grid IM, JM, LM =          15           9
          49
 =================================================
 W R F - G C   T I M E R S
    Domain           1 (Units: s)
 =================================================
  => Coupler Component                       2.466
   -- Physics & Parameterization             0.705
   -- Diagnostics Out                        0.000
  => GEOS-Chem Column                      213.886
  ===> Total Chemistry                     216.353
  => WRF                                  1807.729
  ===> Total WRF-GC                       2024.082
 max optd  1.9364301E+31
 max taucldi  0.4630026    
 max taucldw  1.1781233E-04
 Switching is not necessary as we are already
 in the right domain!
 GIGC_Chunk_Run: Running for in-PET grid #           1
 GIGC_Chunk_Run: Received new grid IM, JM, LM =          15           9
          49
 =================================================
 W R F - G C   T I M E R S
    Domain           1 (Units: s)
 =================================================
  => Coupler Component                       2.499
   -- Physics & Parameterization             0.714
   -- Diagnostics Out                        0.000
  => GEOS-Chem Column                      214.928
  ===> Total Chemistry                     217.428
  => WRF                                  1826.016
  ===> Total WRF-GC                       2043.443
 max optd  1.9364301E+31
 max taucldi  0.4649732    
 max taucldw  1.1937521E-04
 Switching is not necessary as we are already
 in the right domain!
 GIGC_Chunk_Run: Running for in-PET grid #           1
 GIGC_Chunk_Run: Received new grid IM, JM, LM =          15           9
          49
 =================================================
 W R F - G C   T I M E R S
    Domain           1 (Units: s)
 =================================================
  => Coupler Component                       2.532
[...]
  => GEOS-Chem Column                      261.503
  ===> Total Chemistry                     265.582
  => WRF                                  2645.129
  ===> Total WRF-GC                       2910.711
 HOURLY EMISSIONS UPDATE TIME    36000.0       0.0
mediation_integrate: med_read_wrf_chem_emissions: Read emissions for time 2018-01-01_10:00:00
 max optd  1.9364301E+31
 max taucldi  0.6905976    
 max taucldw  1.3623507E-04
 Switching is not necessary as we are already
 in the right domain!
 GIGC_Chunk_Run: Running for in-PET grid #           1
 GIGC_Chunk_Run: Received new grid IM, JM, LM =          15           9
          49
 =================================================
 W R F - G C   T I M E R S
    Domain           1 (Units: s)
 =================================================
  => Coupler Component                       4.118
   -- Physics & Parameterization             1.146
   -- Diagnostics Out                        0.000
  => GEOS-Chem Column                      262.525
  ===> Total Chemistry                     266.643
  => WRF                                  2663.378
  ===> Total WRF-GC                       2930.021
 max optd  1.9364301E+31
 max taucldi  0.7007919    
 max taucldw  1.3654189E-04
 Switching is not necessary as we are already
 in the right domain!
 GIGC_Chunk_Run: Running for in-PET grid #           1
 GIGC_Chunk_Run: Received new grid IM, JM, LM =          15           9
          49
 =================================================
 W R F - G C   T I M E R S
    Domain           1 (Units: s)
 =================================================
  => Coupler Component                       4.153
   -- Physics & Parameterization             1.155
   -- Diagnostics Out                        0.000
  => GEOS-Chem Column                      263.545
  ===> Total Chemistry                     267.698
  => WRF                                  2681.563
  ===> Total WRF-GC                       2949.262
 max optd  1.9364301E+31
 max taucldi  0.7132321    
 max taucldw  1.3715628E-04
 Switching is not necessary as we are already
 in the right domain!
 GIGC_Chunk_Run: Running for in-PET grid #           1
 GIGC_Chunk_Run: Received new grid IM, JM, LM =          15           9
          49
 =================================================
 W R F - G C   T I M E R S
    Domain           1 (Units: s)
 =================================================
  => Coupler Component                       4.191
   -- Physics & Parameterization             1.165
   -- Diagnostics Out                        0.000
  => GEOS-Chem Column                      264.570
  ===> Total Chemistry                     268.761
  => WRF                                  2699.743
  ===> Total WRF-GC                       2968.504
 max optd  1.9364301E+31
 max taucldi  0.7289035    
 max taucldw  1.3793408E-04
 Switching is not necessary as we are already
 in the right domain!
 GIGC_Chunk_Run: Running for in-PET grid #           1
 GIGC_Chunk_Run: Received new grid IM, JM, LM =          15           9
          49
 =================================================
 W R F - G C   T I M E R S
    Domain           1 (Units: s)
 =================================================
  => Coupler Component                       4.227
   -- Physics & Parameterization             1.175
   -- Diagnostics Out                        0.000
  => GEOS-Chem Column                      265.585
  ===> Total Chemistry                     269.812
  => WRF                                  2718.013
  ===> Total WRF-GC                       2987.825
 max optd  1.9364301E+31
 max taucldi  0.7472917    
 max taucldw  1.3886973E-04
 Switching is not necessary as we are already
 in the right domain!
 GIGC_Chunk_Run: Running for in-PET grid #           1
 GIGC_Chunk_Run: Received new grid IM, JM, LM =          15           9
          49
 =================================================
 W R F - G C   T I M E R S
    Domain           1 (Units: s)
 =================================================
  => Coupler Component                       4.265
   -- Physics & Parameterization             1.184
   -- Diagnostics Out                        0.000
  => GEOS-Chem Column                      266.614
  ===> Total Chemistry                     270.879
  => WRF                                  2736.237
  ===> Total WRF-GC                       3007.117
 max optd  1.9364301E+31
 max taucldi  0.7653836    
 max taucldw  1.3998074E-04
 Switching is not necessary as we are already
 in the right domain!
 GIGC_Chunk_Run: Running for in-PET grid #           1
 GIGC_Chunk_Run: Received new grid IM, JM, LM =          15           9
          49
 =================================================
 W R F - G C   T I M E R S
    Domain           1 (Units: s)
 =================================================
  => Coupler Component                       4.302
   -- Physics & Parameterization             1.194
   -- Diagnostics Out                        0.000
  => GEOS-Chem Column                      267.637
  ===> Total Chemistry                     271.939
  => WRF                                  2754.369
  ===> Total WRF-GC                       3026.308
 max optd  1.9364301E+31
 max taucldi  0.7819037    
 max taucldw  1.4118059E-04
 Switching is not necessary as we are already
 in the right domain!
 GIGC_Chunk_Run: Running for in-PET grid #           1
 GIGC_Chunk_Run: Received new grid IM, JM, LM =          15           9
          49
 =================================================
 W R F - G C   T I M E R S
    Domain           1 (Units: s)
 =================================================
  => Coupler Component                       4.339
   -- Physics & Parameterization             1.203
   -- Diagnostics Out                        0.000
  => GEOS-Chem Column                      268.670
  ===> Total Chemistry                     273.009
  => WRF                                  2772.586
  ===> Total WRF-GC                       3045.595
 max optd  1.9364301E+31
 max taucldi  0.7962232    
 max taucldw  1.4230788E-04
 Switching is not necessary as we are already
 in the right domain!
 GIGC_Chunk_Run: Running for in-PET grid #           1
 GIGC_Chunk_Run: Received new grid IM, JM, LM =          15           9
          49
 =================================================
 W R F - G C   T I M E R S
    Domain           1 (Units: s)
 =================================================
  => Coupler Component                       4.378
   -- Physics & Parameterization             1.212
   -- Diagnostics Out                        0.000
  => GEOS-Chem Column                      269.692
  ===> Total Chemistry                     274.070
  => WRF                                  2790.759
  ===> Total WRF-GC                       3064.829
 max optd  1.9364301E+31
 max taucldi  0.8071176    
 max taucldw  1.4320685E-04
 Switching is not necessary as we are already
 in the right domain!
 GIGC_Chunk_Run: Running for in-PET grid #           1
 GIGC_Chunk_Run: Received new grid IM, JM, LM =          15           9
          49
 =================================================
 W R F - G C   T I M E R S
    Domain           1 (Units: s)
 =================================================
  => Coupler Component                       4.417
   -- Physics & Parameterization             1.222
   -- Diagnostics Out                        0.000
  => GEOS-Chem Column                      270.720
  ===> Total Chemistry                     275.137
  => WRF                                  2808.933
  ===> Total WRF-GC                       3084.070
 max optd  1.9364301E+31
 max taucldi  0.8154054    
 max taucldw  1.4380392E-04
 Switching is not necessary as we are already
 in the right domain!
 GIGC_Chunk_Run: Running for in-PET grid #           1
 GIGC_Chunk_Run: Received new grid IM, JM, LM =          15           9
          49
 =================================================
 W R F - G C   T I M E R S
    Domain           1 (Units: s)
 =================================================
  => Coupler Component                       4.455
   -- Physics & Parameterization             1.231
   -- Diagnostics Out                        0.000
  => GEOS-Chem Column                      271.745
  ===> Total Chemistry                     276.201
  => WRF                                  2827.174
  ===> Total WRF-GC                       3103.375
 max optd  1.9364301E+31
 max taucldi  0.8236514    
 max taucldw  1.4624555E-04
 Switching is not necessary as we are already
 in the right domain!
 GIGC_Chunk_Run: Running for in-PET grid #           1
 GIGC_Chunk_Run: Received new grid IM, JM, LM =          15           9
          49
 =================================================
 W R F - G C   T I M E R S
    Domain           1 (Units: s)
 =================================================
  => Coupler Component                       4.493
   -- Physics & Parameterization             1.241
   -- Diagnostics Out                        0.000
  => GEOS-Chem Column                      272.771
  ===> Total Chemistry                     277.264
  => WRF                                  2845.347
  ===> Total WRF-GC                       3122.611
 max optd  1.9364301E+31
 max taucldi  0.8321863    
 max taucldw  1.5084828E-04
 Switching is not necessary as we are already
 in the right domain!
 GIGC_Chunk_Run: Running for in-PET grid #           1
 GIGC_Chunk_Run: Received new grid IM, JM, LM =          15           9
          49
 =================================================
 W R F - G C   T I M E R S
    Domain           1 (Units: s)
 =================================================
  => Coupler Component                       4.528
   -- Physics & Parameterization             1.250
   -- Diagnostics Out                        0.000
  => GEOS-Chem Column                      273.821
  ===> Total Chemistry                     278.349
  => WRF                                  2863.592
  ===> Total WRF-GC                       3141.941
 HOURLY EMISSIONS UPDATE TIME    39600.0       0.0
mediation_integrate: med_read_wrf_chem_emissions: Read emissions for time 2018-01-01_11:00:00
 max optd  1.9364301E+31
 max taucldi  0.8351055    
 max taucldw  1.5505077E-04
 Switching is not necessary as we are already
 in the right domain!
 GIGC_Chunk_Run: Running for in-PET grid #           1
 GIGC_Chunk_Run: Received new grid IM, JM, LM =          15           9
          49
 =================================================
 W R F - G C   T I M E R S
    Domain           1 (Units: s)
 =================================================
  => Coupler Component                       4.566
   -- Physics & Parameterization             1.260
   -- Diagnostics Out                        0.000
  => GEOS-Chem Column                      274.848
  ===> Total Chemistry                     279.414
  => WRF                                  2881.783
  ===> Total WRF-GC                       3161.197
 max optd  1.9364301E+31
 max taucldi  0.8309307    
 max taucldw  1.5844704E-04
 Switching is not necessary as we are already
 in the right domain!
 GIGC_Chunk_Run: Running for in-PET grid #           1
 GIGC_Chunk_Run: Received new grid IM, JM, LM =          15           9
          49
 =================================================
 W R F - G C   T I M E R S
    Domain           1 (Units: s)
 =================================================
  => Coupler Component                       4.606
   -- Physics & Parameterization             1.270
   -- Diagnostics Out                        0.000
  => GEOS-Chem Column                      275.878
  ===> Total Chemistry                     280.484
  => WRF                                  2899.927
  ===> Total WRF-GC                       3180.410
 max optd  1.9364301E+31
 max taucldi  0.8197813    
 max taucldw  1.6119206E-04
 Switching is not necessary as we are already
 in the right domain!
 GIGC_Chunk_Run: Running for in-PET grid #           1
 GIGC_Chunk_Run: Received new grid IM, JM, LM =          15           9
          49
 =================================================
 W R F - G C   T I M E R S
    Domain           1 (Units: s)
 =================================================
  => Coupler Component                       4.643
   -- Physics & Parameterization             1.279
   -- Diagnostics Out                        0.000
  => GEOS-Chem Column                      276.917
  ===> Total Chemistry                     281.561
  => WRF                                  2918.191
  ===> Total WRF-GC                       3199.752
 max optd  1.9364301E+31
 max taucldi  0.8020357    
 max taucldw  1.6344395E-04
 Switching is not necessary as we are already
 in the right domain!
 GIGC_Chunk_Run: Running for in-PET grid #           1
 GIGC_Chunk_Run: Received new grid IM, JM, LM =          15           9
          49
 =================================================
 W R F - G C   T I M E R S
    Domain           1 (Units: s)
 =================================================
  => Coupler Component                       4.682
   -- Physics & Parameterization             1.288
   -- Diagnostics Out                        0.000
  => GEOS-Chem Column                      277.951
  ===> Total Chemistry                     282.632
  => WRF                                  2936.496
  ===> Total WRF-GC                       3219.128
 max optd  1.9364301E+31
 max taucldi  0.7840543    
 max taucldw  1.6557284E-04
 Switching is not necessary as we are already
 in the right domain!
 GIGC_Chunk_Run: Running for in-PET grid #           1
 GIGC_Chunk_Run: Received new grid IM, JM, LM =          15           9
          49
 =================================================
 W R F - G C   T I M E R S
    Domain           1 (Units: s)
 =================================================
  => Coupler Component                       4.719
   -- Physics & Parameterization             1.298
   -- Diagnostics Out                        0.000
  => GEOS-Chem Column                      278.992
  ===> Total Chemistry                     283.711
  => WRF                                  2954.938
  ===> Total WRF-GC                       3238.649
 max optd  1.9364301E+31
 max taucldi  0.7680392    
 max taucldw  1.6744227E-04
 Switching is not necessary as we are already
 in the right domain!
 GIGC_Chunk_Run: Running for in-PET grid #           1
 GIGC_Chunk_Run: Received new grid IM, JM, LM =          15           9
          49
 =================================================
 W R F - G C   T I M E R S
    Domain           1 (Units: s)
 =================================================
  => Coupler Component                       4.759
   -- Physics & Parameterization             1.307
   -- Diagnostics Out                        0.000
  => GEOS-Chem Column                      280.017
  ===> Total Chemistry                     284.775
  => WRF                                  2973.346
  ===> Total WRF-GC                       3258.122
 max optd  1.9364301E+31
 max taucldi  0.7613161    
 max taucldw  1.6884941E-04
 Switching is not necessary as we are already
 in the right domain!
 GIGC_Chunk_Run: Running for in-PET grid #           1
 GIGC_Chunk_Run: Received new grid IM, JM, LM =          15           9
          49
 =================================================
 W R F - G C   T I M E R S
    Domain           1 (Units: s)
 =================================================
  => Coupler Component                       4.795
   -- Physics & Parameterization             1.316
   -- Diagnostics Out                        0.000
  => GEOS-Chem Column                      281.053
  ===> Total Chemistry                     285.848
  => WRF                                  2991.917
  ===> Total WRF-GC                       3277.766
 max optd  1.9364301E+31
 max taucldi  0.7643299    
 max taucldw  1.6952936E-04
 Switching is not necessary as we are already
 in the right domain!
 GIGC_Chunk_Run: Running for in-PET grid #           1
 GIGC_Chunk_Run: Received new grid IM, JM, LM =          15           9
          49
 =================================================
 W R F - G C   T I M E R S
    Domain           1 (Units: s)
 =================================================
  => Coupler Component                       4.834
   -- Physics & Parameterization             1.326
   -- Diagnostics Out                        0.000
  => GEOS-Chem Column                      282.085
  ===> Total Chemistry                     286.919
  => WRF                                  3010.507
  ===> Total WRF-GC                       3297.426
 max optd  1.9364301E+31
 max taucldi  0.7776998    
 max taucldw  1.6945998E-04
 Switching is not necessary as we are already
 in the right domain!
 GIGC_Chunk_Run: Running for in-PET grid #           1
 GIGC_Chunk_Run: Received new grid IM, JM, LM =          15           9
          49
 =================================================
 W R F - G C   T I M E R S
    Domain           1 (Units: s)
 =================================================
  => Coupler Component                       4.869
   -- Physics & Parameterization             1.335
   -- Diagnostics Out                        0.000
  => GEOS-Chem Column                      283.129
  ===> Total Chemistry                     287.998
  => WRF                                  3029.218
  ===> Total WRF-GC                       3317.216
 max optd  1.9364301E+31
 max taucldi  0.7978028    
 max taucldw  1.6885321E-04
 Switching is not necessary as we are already
 in the right domain!
 GIGC_Chunk_Run: Running for in-PET grid #           1
 GIGC_Chunk_Run: Received new grid IM, JM, LM =          15           9
          49
 =================================================
 W R F - G C   T I M E R S
    Domain           1 (Units: s)
 =================================================
  => Coupler Component                       4.906
   -- Physics & Parameterization             1.344
   -- Diagnostics Out                        0.000
  => GEOS-Chem Column                      284.161
  ===> Total Chemistry                     289.067
  => WRF                                  3048.123
  ===> Total WRF-GC                       3337.191
 max optd  1.9364301E+31
 max taucldi  0.8155746    
 max taucldw  1.6814176E-04
 Switching is not necessary as we are already
 in the right domain!
 GIGC_Chunk_Run: Running for in-PET grid #           1
 GIGC_Chunk_Run: Received new grid IM, JM, LM =          15           9
          49
 =================================================
 W R F - G C   T I M E R S
    Domain           1 (Units: s)
 =================================================
  => Coupler Component                       4.942
   -- Physics & Parameterization             1.354
   -- Diagnostics Out                        0.000
  => GEOS-Chem Column                      285.184
  ===> Total Chemistry                     290.126
  => WRF                                  3066.966
  ===> Total WRF-GC                       3357.092
 max optd  1.9364301E+31
 max taucldi  0.8321809    
 max taucldw  1.6743806E-04
 Switching is not necessary as we are already
 in the right domain!
 GIGC_Chunk_Run: Running for in-PET grid #           1
 GIGC_Chunk_Run: Received new grid IM, JM, LM =          15           9
          49
 =================================================
 W R F - G C   T I M E R S
    Domain           1 (Units: s)
 =================================================
  => Coupler Component                       4.978
   -- Physics & Parameterization             1.364
   -- Diagnostics Out                        0.000
  => GEOS-Chem Column                      286.199
  ===> Total Chemistry                     291.178
  => WRF                                  3085.740
  ===> Total WRF-GC                       3376.918
d01 2018-01-01_12:00:00 wrf: SUCCESS COMPLETE WRF
