taskid: 728 hostname: ip-172-31-3-6
Quilting with   1 groups of   0 I/O tasks.
 Ntasks in X           64 , ntasks in Y           72
--- WARNING: traj_opt is zero, but num_traj is not zero; setting num_traj to zero.
--- NOTE: sst_update is 0, setting io_form_auxinput4 = 0 and auxinput4_interval = 0 for all domains
--- NOTE: grid_fdda is 0 for domain      1, setting gfdda interval and ending time to 0 for that domain.
--- NOTE: both grid_sfdda and pxlsm_soil_nudge are 0 for domain      1, setting sgfdda interval and ending time to 0 for that domain.
--- NOTE: obs_nudge_opt is 0 for domain      1, setting obs nudging interval and ending time to 0 for that domain.
--- NOTE: bl_pbl_physics /= 4, implies mfshconv must be 0, resetting
Need MYNN PBL for icloud_bl = 1, resetting to 0
*************************************
No physics suite selected.
Physics options will be used directly from the namelist.
*************************************
--- NOTE: RRTMG radiation is in use, setting:  levsiz=59, alevsiz=12, no_src_types=6
--- NOTE: num_soil_layers has been set to      4
WRF V3.9.1.1 MODEL
 *************************************
 Parent domain
 ids,ide,jds,jde            1         950           1         650
 ims,ime,jms,jme          354         382          94         116
 ips,ipe,jps,jpe          361         375         101         109
 *************************************
DYNAMICS OPTION: Eulerian Mass Coordinate
   alloc_space_field: domain            1 ,              203623800  bytes allocated
  med_initialdata_input: calling input_input
Max map factor in domain 1 =  1.40. Scale the dt in the model accordingly.
INPUT LandUse = "USGS"
 LANDUSE TYPE = "USGS" FOUND          33  CATEGORIES           2  SEASONS WATER CATEGORY =           16  SNOW CATEGORY =           24
INITIALIZE THREE Noah LSM RELATED TABLES
*****************************************************************
  __          _______  ______       _____  _____ _    _ _____
  \ \        / /  __ \|  ____|     / ____|/ ____| |  | |  __ \
   \ \  /\  / /| |__) | |__ ______| |  __| |    | |__| | |__) |
    \ \/  \/ / |  _  /|  __|______| | |_ | |    |  __  |  ___/
     \  /\  /  | | \ \| |         | |__| | |____| |  | | |
      \/  \/   |_|  \_\_|          \_____|\_____|_|  |_|_|
*****************************************************************
         WRF-GC MODEL, VERSION 1811.11 - WRF BINDINGS
 For errors, suggestions & feedback email linhaipeng@pku.edu.cn
*****************************************************************
    This is domain            1
 ### GIGC_Stateful_Mod: Root CPU, after READ_INPUT_FILE
  Linoz Data:  O3 climatology :                  z*=10, 12, ..., 58                             2.700E-08 1.083E-05
  Linoz Data:  Temperature climatology :         z*=10, 12, ..., 58                             1.859E+02 2.904E+02
  Linoz Data:  Column O3 above box climalology : z*=10, 12, ..., 58                             7.538E-02 3.770E+02
  Linoz Data:  P-L O3 climatology (mr/s):        z*=10, 12, ..., 58                            -1.590E-10 2.835E-11
  Linoz Data:  d(P-L)/dO3 (1/s) :                z*=10, 12, ..., 58                            -8.386E-04 7.556E-09
  Linoz Data:  d(P-L)/dT (mr/K) :                z*=10, 12, ..., 58                            -5.742E-12 4.615E-14
  Linoz Data:  d(P-L)/d(column O3) (mr/DU) :     z*=10, 12, ..., 58                            -1.921E-12 5.038E-10
 ### GIGC_Stateful_Mod: Root CPU, after LINOZ_READ
 %%%%%%%%% GIGC IN-PET GRID SWITCHING HACKS %%%%%%%%%
     (Not very) Proudly brought to you by hplin      
 Some debug information:
 ID:           1
 IM, JM, LM:          15           9          49  will be set as PAR
 Allocs: CMN T GC F
 RC at entry-point:           0
 %%%%%%%%%%%%%%%%%%%%%%%%%%%%%%%%%%%%%%%%%%%%%%%%%%%%
 No need to switch HcoState for ID           1
 Exit RC:            0
 %%%%%%%%%    FINISHED GIGC_Switch_Dims    %%%%%%%%%
 GIGC_Chunk_Init: Received new grid IM, JM, LM =          15           9
          49
     ### GIGC_INIT_SIMULATION: after Input_Opt% setups
     ### GIGC_INIT_SIMULATION: after GC_Init_All
     ### GIGC_INIT_SIMULATION: after GC_Init_Extra
     ### GIGC_INIT_SIMULATION: after INIT_FJX
 # GIGC_CHUNK_MOD: after SV save, ID =           1
 WRFGC chemics_init: Following information regarding Input_Opt% (for all doms)
 After domain           1
 HPC:  T
 LPRT:  F
 DoConv:  T
 DoDryDep:  T
 DoEmis:  T
 DoChem:  T
 DoTurb:  T
 DoWetDep:  T

 tropopause_init: DONE intialized domain            1

 mediation_integrate: med_read_wrf_chem_emissions: Open file wrfchemi_00z_d01
 HOURLY EMISSIONS UPDATE TIME        0.0       0.0
mediation_integrate: med_read_wrf_chem_emissions: Read emissions for time 2018-01-01_00:00:00
open_aux_u : error opening wrffirechemi_d01_2018-01-01_00:00:00 for reading. 100
open_aux_u : error opening wrfchemi_gocart_bg_d01 for reading. 100
d01 2018-01-01_00:00:00 Input data processed for aux input   8 for domain   1
open_aux_u : error opening wrfchemv_d01 for reading. 100
 Tile Strategy is not specified. Assuming 1D-Y
WRF TILE   1 IS    361 IE    375 JS    101 JE    109
WRF NUMBER OF TILES =   1
 max optd  2.0755804E+29
 max taucldi  0.0000000E+00
 max taucldw  0.0000000E+00
 =================================================
 W R F - G C   T I M E R S
    Domain           1 (Units: s)
 =================================================
  => Coupler Component                       0.030
   -- Physics & Parameterization             0.001
   -- Diagnostics Out                        0.000
  => GEOS-Chem Column                        0.000
  ===> Total Chemistry                       0.030
  => WRF                                     0.000
  ===> Total WRF-GC                          0.030
 max optd  2.0755804E+29
 max taucldi  7.6668121E-02
 max taucldw  1.0000007E-14
 %%%%%%%%% GIGC IN-PET GRID SWITCHING HACKS %%%%%%%%%
     (Not very) Proudly brought to you by hplin      
 Some debug information:
 ID:           1
 IM, JM, LM:          15           9          49  will be set as PAR
 Allocs: CMN T GC T
 RC at entry-point:           0
 %%%%%%%%%%%%%%%%%%%%%%%%%%%%%%%%%%%%%%%%%%%%%%%%%%%%
 No need to switch HcoState for ID           1
 Debug HcoState nSpc, NX, NY, NZ         163          15           9          49
 Exit RC:            0
 %%%%%%%%%    FINISHED GIGC_Switch_Dims    %%%%%%%%%
 GIGC_Chunk_Run: Running for in-PET grid #           1
 GIGC_Chunk_Run: Received new grid IM, JM, LM =          15           9
          49
HEMCO: Opening /fsx/HEMCO/BIOFUEL/v2014-07/biofuel.geos.4x5.nc
HEMCO: Opening /fsx/HEMCO/BROMINE/v2015-02/Bromocarb_Liang2010.nc
HEMCO: Opening /fsx/HEMCO/ACET/v2014-07/ACET_seawater.generic.1x1.nc
HEMCO: Opening /fsx/HEMCO/SOILNOX/v2014-07/DepReservoirDefault.nc
HEMCO: Opening /fsx/HEMCO/SOILNOX/v2014-07/soilNOx.landtype.generic.025x025.1L.nc
HEMCO: Opening /fsx/HEMCO/SOILNOX/v2014-07/soilNOx.climate.generic.05x05.nc
HEMCO: Opening /fsx/HEMCO/DUST_DEAD/v2014-07/dst_tibds.geos.4x5.nc
HEMCO: Opening /fsx/HEMCO/DUST_DEAD/v2014-07/GOCART_src_fn.geos.4x5.nc
HEMCO: Opening /fsx/HEMCO/MEGAN/v2018-05/MEGAN2.1_EF.geos.025x03125.nc
HEMCO: Opening /fsx/HEMCO/MEGAN/v2017-07/CLM4_PFT.geos.025x03125.nc
HEMCO: Opening /fsx/HEMCO/TIMEZONES/v2015-02/timezones_voronoi_1x1.nc
HEMCO: Opening /fsx/HEMCO/STRAT/v2015-01/Bry/GEOSCCM_Bry.200701.day.nc
HEMCO: Opening /fsx/HEMCO/STRAT/v2015-01/Bry/GEOSCCM_Bry.200701.night.nc
HEMCO: Opening /fsx/HEMCO/OMOC/v2018-01/OMOC.DJF.01x01.nc
HEMCO: Opening /fsx/HEMCO/OMOC/v2018-01/OMOC.MAM.01x01.nc
HEMCO: Opening /fsx/HEMCO/OMOC/v2018-01/OMOC.JJA.01x01.nc
HEMCO: Opening /fsx/HEMCO/OMOC/v2018-01/OMOC.SON.01x01.nc
HEMCO: Opening /fsx/HEMCO/AnnualScalar/v2014-07/AnnualScalar.geos.1x1.nc
HEMCO: Opening /fsx/HEMCO/EDGARv42/v2015-02/NO/EDGAR_hourly_NOxScal.nc
HEMCO: Opening /fsx/HEMCO/MASKS/v2018-09/EMEP_mask.geos.1x1.20151222.nc
HEMCO: Opening /fsx/HEMCO/MASKS/v2018-09/Canada_mask.geos.1x1.nc
HEMCO: Opening /fsx/HEMCO/MASKS/v2018-09/SE_Asia_mask.generic.1x1.nc
HEMCO: Opening /fsx/HEMCO/MASKS/v2018-09/MIX_Asia_mask.generic.025x025.nc
HEMCO: Opening /fsx/HEMCO/MASKS/v2018-09/CONUS_Mask.01x01.nc
HEMCO: Opening /fsx/HEMCO/MASKS/v2018-09/AF_LANDMASK.geos.05x0666.global.nc
HEMCO: Opening /fsx/HEMCO/MASKS/v2018-09/China_mask.generic.1x1.nc
HEMCO: Opening /fsx/HEMCO/MASKS/v2018-09/India_mask.generic.1x1.nc
HEMCO: Opening /fsx/HEMCO/AnnualScalar/v2014-07/AnnualScalar.geos.1x1.nc
HEMCO: Opening /fsx/HEMCO/NH3/v2014-07/NH3_geos.4x5.nc
HEMCO: Opening /fsx/HEMCO/NH3/v2018-04/NH3_Arctic_seabirds.nc
HEMCO: Opening /fsx/HEMCO/CEDS/v2018-08/2014/NO-em-anthro_CMIP_CEDS_2014.nc
HEMCO: Opening /fsx/HEMCO/CEDS/v2018-08/2014/CO-em-anthro_CMIP_CEDS_2014.nc
HEMCO: Opening /fsx/HEMCO/CEDS/v2018-08/2014/SO2-em-anthro_CMIP_CEDS_2014.nc
HEMCO: Opening /fsx/HEMCO/CEDS/v2018-08/2014/NH3-em-anthro_CMIP_CEDS_2014.nc
HEMCO: Opening /fsx/HEMCO/CEDS/v2018-08/2014/BC-em-anthro_CMIP_CEDS_2014.nc
HEMCO: Opening /fsx/HEMCO/CEDS/v2018-08/2014/OC-em-anthro_CMIP_CEDS_2014.nc
HEMCO: Opening /fsx/HEMCO/CEDS/v2018-08/2014/EOH-em-anthro_CMIP_CEDS_2014.nc
HEMCO: Opening /fsx/HEMCO/CEDS/v2018-08/2014/C2H6-em-anthro_CMIP_CEDS_2014.nc
HEMCO: Opening /fsx/HEMCO/CEDS/v2018-08/2014/C3H8-em-anthro_CMIP_CEDS_2014.nc
HEMCO: Opening /fsx/HEMCO/CEDS/v2018-08/2014/ALK4_butanes-em-anthro_CMIP_CEDS_2014.nc
HEMCO: Opening /fsx/HEMCO/CEDS/v2018-08/2014/ALK4_pentanes-em-anthro_CMIP_CEDS_2014.nc
HEMCO: Opening /fsx/HEMCO/CEDS/v2018-08/2014/ALK4_hexanes-em-anthro_CMIP_CEDS_2014.nc
HEMCO: Opening /fsx/HEMCO/CEDS/v2018-08/2014/PRPE-em-anthro_CMIP_CEDS_2014.nc
HEMCO: Opening /fsx/HEMCO/CEDS/v2018-08/2014/BENZ-em-anthro_CMIP_CEDS_2014.nc
HEMCO: Opening /fsx/HEMCO/CEDS/v2018-08/2014/TOLU-em-anthro_CMIP_CEDS_2014.nc
HEMCO: Opening /fsx/HEMCO/CEDS/v2018-08/2014/XYLE-em-anthro_CMIP_CEDS_2014.nc
HEMCO: Opening /fsx/HEMCO/CEDS/v2018-08/2014/CH2O-em-anthro_CMIP_CEDS_2014.nc
HEMCO: Opening /fsx/HEMCO/CEDS/v2018-08/2014/ALD2-em-anthro_CMIP_CEDS_2014.nc
HEMCO: Opening /fsx/HEMCO/CEDS/v2018-08/2014/MEK-em-anthro_CMIP_CEDS_2014.nc
HEMCO: Opening /fsx/HEMCO/CEDS/v2018-08/2014/HCOOH-em-anthro_CMIP_CEDS_2014.nc
HEMCO: Opening /fsx/HEMCO/C2H6_2010/v2017-05/C2H6_global_anth_biof.201001.nc
HEMCO: Opening /fsx/HEMCO/NEI2011/v2017-02-MM/01/NEI11_0.1x0.1_201101_monmean.nc
HEMCO: Opening /fsx/HEMCO/NEI2011/v2017-02-MM/01/NEI11_0.1x0.1_201101_monmean_egu.nc
HEMCO: Opening /fsx/HEMCO/NEI2011/v2017-02-MM/01/NEI11_0.1x0.1_201101_monmean_egupk.nc
HEMCO: Opening /fsx/HEMCO/NEI2011/v2017-02-MM/01/NEI11_0.1x0.1_201101_monmean_oilgas.nc
HEMCO: Opening /fsx/HEMCO/NEI2011/v2017-02-MM/01/NEI11_0.1x0.1_201101_monmean_othpt.nc
HEMCO: Opening /fsx/HEMCO/NEI2011/v2017-02-MM/01/NEI11_0.1x0.1_201101_monmean_ptnonipm.nc
HEMCO: Opening /fsx/HEMCO/IODINE/v2017-09/CH3I_monthly_emissions_Ordonez_2012_COARDS.nc
HEMCO: Opening /fsx/HEMCO/IODINE/v2017-09/CH2I2_monthly_emissions_Ordonez_2012_COARDS.nc
HEMCO: Opening /fsx/HEMCO/IODINE/v2017-09/CH2ICl_monthly_emissions_Ordonez_2012_COARDS.nc
HEMCO: Opening /fsx/HEMCO/IODINE/v2017-09/CH2IBr_monthly_emissions_Ordonez_2012_COARDS.nc
HEMCO: Opening /fsx/HEMCO/CEDS/v2018-08/2014/CO-em-anthro_CMIP_CEDS_2014.nc
HEMCO: Opening /fsx/HEMCO/CEDS/v2018-08/2014/SO2-em-anthro_CMIP_CEDS_2014.nc
HEMCO: Opening /fsx/HEMCO/CEDS/v2018-08/2014/NH3-em-anthro_CMIP_CEDS_2014.nc
HEMCO: Opening /fsx/HEMCO/CEDS/v2018-08/2014/BC-em-anthro_CMIP_CEDS_2014.nc
HEMCO: Opening /fsx/HEMCO/CEDS/v2018-08/2014/OC-em-anthro_CMIP_CEDS_2014.nc
HEMCO: Opening /fsx/HEMCO/CEDS/v2018-08/2014/EOH-em-anthro_CMIP_CEDS_2014.nc
HEMCO: Opening /fsx/HEMCO/CEDS/v2018-08/2014/C2H6-em-anthro_CMIP_CEDS_2014.nc
HEMCO: Opening /fsx/HEMCO/CEDS/v2018-08/2014/C3H8-em-anthro_CMIP_CEDS_2014.nc
HEMCO: Opening /fsx/HEMCO/CEDS/v2018-08/2014/ALK4_butanes-em-anthro_CMIP_CEDS_2014.nc
HEMCO: Opening /fsx/HEMCO/CEDS/v2018-08/2014/ALK4_pentanes-em-anthro_CMIP_CEDS_2014.nc
HEMCO: Opening /fsx/HEMCO/CEDS/v2018-08/2014/ALK4_hexanes-em-anthro_CMIP_CEDS_2014.nc
HEMCO: Opening /fsx/HEMCO/CEDS/v2018-08/2014/PRPE-em-anthro_CMIP_CEDS_2014.nc
HEMCO: Opening /fsx/HEMCO/CEDS/v2018-08/2014/BENZ-em-anthro_CMIP_CEDS_2014.nc
HEMCO: Opening /fsx/HEMCO/CEDS/v2018-08/2014/TOLU-em-anthro_CMIP_CEDS_2014.nc
HEMCO: Opening /fsx/HEMCO/CEDS/v2018-08/2014/XYLE-em-anthro_CMIP_CEDS_2014.nc
HEMCO: Opening /fsx/HEMCO/CEDS/v2018-08/2014/CH2O-em-anthro_CMIP_CEDS_2014.nc
HEMCO: Opening /fsx/HEMCO/CEDS/v2018-08/2014/ALD2-em-anthro_CMIP_CEDS_2014.nc
HEMCO: Opening /fsx/HEMCO/CEDS/v2018-08/2014/MEK-em-anthro_CMIP_CEDS_2014.nc
HEMCO: Opening /fsx/HEMCO/CEDS/v2018-08/2014/HCOOH-em-anthro_CMIP_CEDS_2014.nc
HEMCO: Opening /fsx/HEMCO/CEDS/v2018-08/2014/NO-em-anthro_CMIP_CEDS_2014.nc
HEMCO: Opening /fsx/HEMCO/AEIC/v2015-01/AEIC.47L.gen.1x1.nc
HEMCO: Opening /fsx/HEMCO/ALD2/v2017-03/resp.geos.2x25.nc
HEMCO: Opening /fsx/HEMCO/DMS/v2015-07/DMS_lana.geos.1x1.nc
HEMCO: Opening /fsx/HEMCO/ALD2/v2017-03/ALD2_seawater.geos.2x25.nc
HEMCO: Opening /fsx/HEMCO/DUST_DEAD/v2014-07/dst_tvbds.geos.4x5.nc
HEMCO: Opening /fsx/HEMCO/DUST_DEAD/v2018-04/PM25FINE_ECLIPSE_2015.geos.2x25.nc
HEMCO: Opening /fsx/HEMCO/SOA/v2014-07/NVOC.geos.1x1.nc
HEMCO: Opening /fsx/HEMCO/GFED4/v2015-10/2016/GFED4_gen.025x025.201601.nc
HEMCO: Opening /fsx/HEMCO/UVALBEDO/v2015-03/uvalbedo.geos.2x25.nc
HEMCO: Opening /fsx/HEMCO/GMI/v2015-02/gmi.clim.ACET.geos5.2x25.nc
HEMCO: Opening /fsx/HEMCO/GMI/v2015-02/gmi.clim.ACTA.geos5.2x25.nc
HEMCO: Opening /fsx/HEMCO/GMI/v2015-02/gmi.clim.ALD2.geos5.2x25.nc
HEMCO: Opening /fsx/HEMCO/GMI/v2015-02/gmi.clim.ALK4.geos5.2x25.nc
HEMCO: Opening /fsx/HEMCO/GMI/v2015-02/gmi.clim.C2H6.geos5.2x25.nc
HEMCO: Opening /fsx/HEMCO/GMI/v2015-02/gmi.clim.C3H8.geos5.2x25.nc
HEMCO: Opening /fsx/HEMCO/GMI/v2015-02/gmi.clim.CCl4.geos5.2x25.nc
HEMCO: Opening /fsx/HEMCO/GMI/v2015-02/gmi.clim.CF2Cl2.geos5.2x25.nc
HEMCO: Opening /fsx/HEMCO/GMI/v2015-02/gmi.clim.CF2ClBr.geos5.2x25.nc
HEMCO: Opening /fsx/HEMCO/GMI/v2015-02/gmi.clim.CFC113.geos5.2x25.nc
HEMCO: Opening /fsx/HEMCO/GMI/v2015-02/gmi.clim.CFC114.geos5.2x25.nc
HEMCO: Opening /fsx/HEMCO/GMI/v2015-02/gmi.clim.CFC115.geos5.2x25.nc
HEMCO: Opening /fsx/HEMCO/GMI/v2015-02/gmi.clim.CFCl3.geos5.2x25.nc
HEMCO: Opening /fsx/HEMCO/GMI/v2015-02/gmi.clim.CH2O.geos5.2x25.nc
HEMCO: Opening /fsx/HEMCO/GMI/v2015-02/gmi.clim.CH3CCl3.geos5.2x25.nc
HEMCO: Opening /fsx/HEMCO/GMI/v2015-02/gmi.clim.CH3Cl.geos5.2x25.nc
HEMCO: Opening /fsx/HEMCO/GMI/v2015-02/gmi.clim.CH4.geos5.2x25.nc
HEMCO: Opening /fsx/HEMCO/GMI/v2015-02/gmi.clim.CO.geos5.2x25.nc
HEMCO: Opening /fsx/HEMCO/GMI/v2015-02/gmi.clim.Cl.geos5.2x25.nc
HEMCO: Opening /fsx/HEMCO/GMI/v2015-02/gmi.clim.Cl2.geos5.2x25.nc
HEMCO: Opening /fsx/HEMCO/GMI/v2015-02/gmi.clim.Cl2O2.geos5.2x25.nc
HEMCO: Opening /fsx/HEMCO/GMI/v2015-02/gmi.clim.ClO.geos5.2x25.nc
HEMCO: Opening /fsx/HEMCO/GMI/v2015-02/gmi.clim.EOH.geos5.2x25.nc
HEMCO: Opening /fsx/HEMCO/GMI/v2015-02/gmi.clim.GLYC.geos5.2x25.nc
HEMCO: Opening /fsx/HEMCO/GMI/v2015-02/gmi.clim.GLYX.geos5.2x25.nc
HEMCO: Opening /fsx/HEMCO/GMI/v2015-02/gmi.clim.H2402.geos5.2x25.nc
HEMCO: Opening /fsx/HEMCO/GMI/v2015-02/gmi.clim.H2O.geos5.2x25.nc
HEMCO: Opening /fsx/HEMCO/GMI/v2015-02/gmi.clim.H2O2.geos5.2x25.nc
HEMCO: Opening /fsx/HEMCO/GMI/v2015-02/gmi.clim.HAC.geos5.2x25.nc
HEMCO: Opening /fsx/HEMCO/GMI/v2015-02/gmi.clim.HCFC141b.geos5.2x25.nc
HEMCO: Opening /fsx/HEMCO/GMI/v2015-02/gmi.clim.HCFC142b.geos5.2x25.nc
HEMCO: Opening /fsx/HEMCO/GMI/v2015-02/gmi.clim.HCFC22.geos5.2x25.nc
HEMCO: Opening /fsx/HEMCO/GMI/v2015-02/gmi.clim.HCOOH.geos5.2x25.20170108.nc
HEMCO: Opening /fsx/HEMCO/GMI/v2015-02/gmi.clim.HCl.geos5.2x25.nc
HEMCO: Opening /fsx/HEMCO/GMI/v2015-02/gmi.clim.HNO2.geos5.2x25.nc
HEMCO: Opening /fsx/HEMCO/GMI/v2015-02/gmi.clim.HNO3.geos5.2x25.nc
HEMCO: Opening /fsx/HEMCO/GMI/v2015-02/gmi.clim.HNO4.geos5.2x25.nc
HEMCO: Opening /fsx/HEMCO/GMI/v2015-02/gmi.clim.HOCl.geos5.2x25.nc
HEMCO: Opening /fsx/HEMCO/GMI/v2015-02/gmi.clim.ISN1.geos5.2x25.nc
HEMCO: Opening /fsx/HEMCO/GMI/v2015-02/gmi.clim.ISOP.geos5.2x25.nc
HEMCO: Opening /fsx/HEMCO/GMI/v2015-02/gmi.clim.MACR.geos5.2x25.nc
HEMCO: Opening /fsx/HEMCO/GMI/v2015-02/gmi.clim.MAP.geos5.2x25.nc
HEMCO: Opening /fsx/HEMCO/GMI/v2015-02/gmi.clim.MEK.geos5.2x25.nc
HEMCO: Opening /fsx/HEMCO/GMI/v2015-02/gmi.clim.MGLY.geos5.2x25.nc
HEMCO: Opening /fsx/HEMCO/GMI/v2015-02/gmi.clim.MP.geos5.2x25.nc
HEMCO: Opening /fsx/HEMCO/GMI/v2015-02/gmi.clim.MVK.geos5.2x25.nc
HEMCO: Opening /fsx/HEMCO/GMI/v2015-02/gmi.clim.N2O.geos5.2x25.nc
HEMCO: Opening /fsx/HEMCO/GMI/v2015-02/gmi.clim.N2O5.geos5.2x25.nc
HEMCO: Opening /fsx/HEMCO/GMI/v2015-02/gmi.clim.NO.geos5.2x25.nc
HEMCO: Opening /fsx/HEMCO/GMI/v2015-02/gmi.clim.NO2.geos5.2x25.nc
HEMCO: Opening /fsx/HEMCO/GMI/v2015-02/gmi.clim.NO3.geos5.2x25.nc
HEMCO: Opening /fsx/HEMCO/GMI/v2015-02/gmi.clim.O3.geos5.2x25.nc
HEMCO: Opening /fsx/HEMCO/GMI/v2015-02/gmi.clim.OClO.geos5.2x25.nc
HEMCO: Opening /fsx/HEMCO/GMI/v2015-02/gmi.clim.PAN.geos5.2x25.nc
HEMCO: Opening /fsx/HEMCO/GMI/v2015-02/gmi.clim.NPMN.geos5.2x25.nc
HEMCO: Opening /fsx/HEMCO/GMI/v2015-02/gmi.clim.IPMN.geos5.2x25.nc
HEMCO: Opening /fsx/HEMCO/GMI/v2015-02/gmi.clim.PPN.geos5.2x25.nc
HEMCO: Opening /fsx/HEMCO/GMI/v2015-02/gmi.clim.PRPE.geos5.2x25.nc
HEMCO: Opening /fsx/HEMCO/GMI/v2015-02/gmi.clim.R4N2.geos5.2x25.nc
HEMCO: Opening /fsx/HEMCO/GMI/v2015-02/gmi.clim.RCHO.geos5.2x25.nc
HEMCO: Opening /fsx/HEMCO/GMI/v2015-02/gmi.clim.RIPA.geos5.2x25.nc
HEMCO: Opening /fsx/HEMCO/GMI/v2015-02/gmi.clim.RIPB.geos5.2x25.nc
HEMCO: Opening /fsx/HEMCO/GMI/v2015-02/gmi.clim.RIPD.geos5.2x25.nc
HEMCO: Opening /fsx/HEMCO/GMI/v2015-02/gmi.clim.OH.geos5.2x25.nc
HEMCO: Opening /fsx/HEMCO/NOAA_GMD/v2018-01/monthly.gridded.surface.methane.1979-2020.1x1.nc
HEMCO: Opening /fsx/HEMCO/GEIA/v2014-07/GEIA_monthscal.generic.1x1.nc
HEMCO: Opening /fsx/HEMCO/EMEP/v2015-03/EMEP.Seasonal.geos.1x1.nc
HEMCO: Opening /fsx/HEMCO/BROMINE/v2015-02/BromoCarb_Season.nc
HEMCO: Opening /fsx/HEMCO/EDGARv43/v2016-11/EDGAR_v43.Seasonal.1x1.nc
HEMCO: Opening /fsx/HEMCO/NEI2005/v2014-09/scaling/NEI99.dow.geos.1x1.nc
HEMCO: Opening /fsx/HEMCO/VOLCANO/v2015-02/2009/volc_so2_gen.1x1.47L.200901.nc
HEMCO: Opening /fsx/HEMCO/SOILNOX/v2014-07/soilNOx.fert_res.generic.05x05.nc
 vdinti: pbl height will be limited to bottom           25  model levels. top is
     431.250100000000       hpa
 =================================================
 W R F - G C   T I M E R S
    Domain           1 (Units: s)
 =================================================
  => Coupler Component                       0.057
   -- Physics & Parameterization             0.009
   -- Diagnostics Out                        0.000
  => GEOS-Chem Column                      136.177
  ===> Total Chemistry                     136.234
  => WRF                                    17.301
  ===> Total WRF-GC                        153.535
 max optd  8.2821992E+34
 max taucldi  7.6719843E-02
 max taucldw  2.5825054E-06
 Switching is not necessary as we are already
 in the right domain!
 GIGC_Chunk_Run: Running for in-PET grid #           1
 GIGC_Chunk_Run: Received new grid IM, JM, LM =          15           9
          49
 =================================================
 W R F - G C   T I M E R S
    Domain           1 (Units: s)
 =================================================
  => Coupler Component                       0.086
   -- Physics & Parameterization             0.018
   -- Diagnostics Out                        0.000
  => GEOS-Chem Column                      137.463
  ===> Total Chemistry                     137.548
  => WRF                                    54.726
  ===> Total WRF-GC                        192.274
 max optd  8.2821992E+34
 max taucldi  7.6425523E-02
 max taucldw  3.6085528E-06
 Switching is not necessary as we are already
 in the right domain!
 GIGC_Chunk_Run: Running for in-PET grid #           1
 GIGC_Chunk_Run: Received new grid IM, JM, LM =          15           9
          49
 =================================================
 W R F - G C   T I M E R S
    Domain           1 (Units: s)
 =================================================
  => Coupler Component                       0.118
   -- Physics & Parameterization             0.027
   -- Diagnostics Out                        0.000
  => GEOS-Chem Column                      138.670
  ===> Total Chemistry                     138.788
  => WRF                                    75.303
  ===> Total WRF-GC                        214.091
 max optd  8.2821992E+34
 max taucldi  7.8351498E-02
 max taucldw  4.3959017E-06
 Switching is not necessary as we are already
 in the right domain!
 GIGC_Chunk_Run: Running for in-PET grid #           1
 GIGC_Chunk_Run: Received new grid IM, JM, LM =          15           9
          49
 =================================================
 W R F - G C   T I M E R S
    Domain           1 (Units: s)
 =================================================
  => Coupler Component                       0.147
   -- Physics & Parameterization             0.036
   -- Diagnostics Out                        0.000
  => GEOS-Chem Column                      139.848
  ===> Total Chemistry                     139.995
  => WRF                                    94.179
  ===> Total WRF-GC                        234.174
 max optd  8.2821992E+34
 max taucldi  7.3617853E-02
 max taucldw  4.9190485E-06
 Switching is not necessary as we are already
 in the right domain!
 GIGC_Chunk_Run: Running for in-PET grid #           1
 GIGC_Chunk_Run: Received new grid IM, JM, LM =          15           9
          49
 =================================================
 W R F - G C   T I M E R S
    Domain           1 (Units: s)
 =================================================
  => Coupler Component                       0.181
   -- Physics & Parameterization             0.045
   -- Diagnostics Out                        0.000
  => GEOS-Chem Column                      140.992
  ===> Total Chemistry                     141.172
  => WRF                                   112.638
  ===> Total WRF-GC                        253.811
 max optd  8.2821992E+34
 max taucldi  7.3882706E-02
 max taucldw  5.1962174E-06
 Switching is not necessary as we are already
 in the right domain!
 GIGC_Chunk_Run: Running for in-PET grid #           1
 GIGC_Chunk_Run: Received new grid IM, JM, LM =          15           9
          49
 =================================================
 W R F - G C   T I M E R S
    Domain           1 (Units: s)
 =================================================
  => Coupler Component                       0.210
   -- Physics & Parameterization             0.054
   -- Diagnostics Out                        0.000
  => GEOS-Chem Column                      142.174
  ===> Total Chemistry                     142.384
  => WRF                                   130.992
  ===> Total WRF-GC                        273.376
 max optd  8.2821992E+34
 max taucldi  7.3004030E-02
 max taucldw  5.2940436E-06
 Switching is not necessary as we are already
 in the right domain!
 GIGC_Chunk_Run: Running for in-PET grid #           1
 GIGC_Chunk_Run: Received new grid IM, JM, LM =          15           9
          49
 =================================================
 W R F - G C   T I M E R S
    Domain           1 (Units: s)
 =================================================
  => Coupler Component                       0.241
   -- Physics & Parameterization             0.063
   -- Diagnostics Out                        0.000
  => GEOS-Chem Column                      143.326
  ===> Total Chemistry                     143.566
  => WRF                                   149.320
  ===> Total WRF-GC                        292.887
 max optd  8.2821992E+34
 max taucldi  7.1392573E-02
 max taucldw  5.3144067E-06
 Switching is not necessary as we are already
 in the right domain!
 GIGC_Chunk_Run: Running for in-PET grid #           1
 GIGC_Chunk_Run: Received new grid IM, JM, LM =          15           9
          49
 =================================================
 W R F - G C   T I M E R S
    Domain           1 (Units: s)
 =================================================
  => Coupler Component                       0.277
   -- Physics & Parameterization             0.072
   -- Diagnostics Out                        0.000
  => GEOS-Chem Column                      144.410
  ===> Total Chemistry                     144.688
  => WRF                                   167.613
  ===> Total WRF-GC                        312.301
 max optd  8.2821992E+34
 max taucldi  6.4690836E-02
 max taucldw  4.9895734E-06
 Switching is not necessary as we are already
 in the right domain!
 GIGC_Chunk_Run: Running for in-PET grid #           1
 GIGC_Chunk_Run: Received new grid IM, JM, LM =          15           9
          49
 =================================================
 W R F - G C   T I M E R S
    Domain           1 (Units: s)
 =================================================
  => Coupler Component                       0.312
   -- Physics & Parameterization             0.081
   -- Diagnostics Out                        0.000
  => GEOS-Chem Column                      145.446
  ===> Total Chemistry                     145.758
  => WRF                                   185.965
  ===> Total WRF-GC                        331.724
 max optd  8.2821992E+34
 max taucldi  5.8344610E-02
 max taucldw  5.0832032E-06
 Switching is not necessary as we are already
 in the right domain!
 GIGC_Chunk_Run: Running for in-PET grid #           1
 GIGC_Chunk_Run: Received new grid IM, JM, LM =          15           9
          49
 =================================================
 W R F - G C   T I M E R S
    Domain           1 (Units: s)
 =================================================
  => Coupler Component                       0.348
   -- Physics & Parameterization             0.089
   -- Diagnostics Out                        0.000
  => GEOS-Chem Column                      146.456
  ===> Total Chemistry                     146.803
  => WRF                                   204.414
  ===> Total WRF-GC                        351.218
 max optd  8.2821992E+34
 max taucldi  5.1362760E-02
 max taucldw  4.8175266E-06
 Switching is not necessary as we are already
 in the right domain!
 GIGC_Chunk_Run: Running for in-PET grid #           1
 GIGC_Chunk_Run: Received new grid IM, JM, LM =          15           9
          49
 =================================================
 W R F - G C   T I M E R S
    Domain           1 (Units: s)
 =================================================
  => Coupler Component                       0.386
   -- Physics & Parameterization             0.099
   -- Diagnostics Out                        0.000
  => GEOS-Chem Column                      147.477
  ===> Total Chemistry                     147.863
  => WRF                                   222.819
  ===> Total WRF-GC                        370.683
 max optd  8.2821992E+34
 max taucldi  4.1034590E-02
 max taucldw  4.6509990E-06
 Switching is not necessary as we are already
 in the right domain!
 GIGC_Chunk_Run: Running for in-PET grid #           1
 GIGC_Chunk_Run: Received new grid IM, JM, LM =          15           9
          49
 =================================================
 W R F - G C   T I M E R S
    Domain           1 (Units: s)
 =================================================
  => Coupler Component                       0.424
   -- Physics & Parameterization             0.107
   -- Diagnostics Out                        0.000
  => GEOS-Chem Column                      148.501
  ===> Total Chemistry                     148.924
  => WRF                                   241.090
  ===> Total WRF-GC                        390.015
 HOURLY EMISSIONS UPDATE TIME     3600.0       0.0
mediation_integrate: med_read_wrf_chem_emissions: Read emissions for time 2018-01-01_01:00:00
 max optd  8.2821992E+34
 max taucldi  1.8986696E-02
 max taucldw  4.5602264E-06
 Switching is not necessary as we are already
 in the right domain!
 GIGC_Chunk_Run: Running for in-PET grid #           1
 GIGC_Chunk_Run: Received new grid IM, JM, LM =          15           9
          49
 =================================================
 W R F - G C   T I M E R S
    Domain           1 (Units: s)
 =================================================
  => Coupler Component                       0.467
   -- Physics & Parameterization             0.117
   -- Diagnostics Out                        0.000
  => GEOS-Chem Column                      149.523
  ===> Total Chemistry                     149.990
  => WRF                                   259.449
  ===> Total WRF-GC                        409.439
 max optd  8.2821992E+34
 max taucldi  1.5693941E-04
 max taucldw  4.4267281E-06
 Switching is not necessary as we are already
 in the right domain!
 GIGC_Chunk_Run: Running for in-PET grid #           1
 GIGC_Chunk_Run: Received new grid IM, JM, LM =          15           9
          49
 =================================================
 W R F - G C   T I M E R S
    Domain           1 (Units: s)
 =================================================
  => Coupler Component                       0.506
   -- Physics & Parameterization             0.126
   -- Diagnostics Out                        0.000
  => GEOS-Chem Column                      150.565
  ===> Total Chemistry                     151.071
  => WRF                                   277.780
  ===> Total WRF-GC                        428.852
 max optd  8.2821992E+34
 max taucldi  1.4447427E-04
 max taucldw  4.4582239E-06
 Switching is not necessary as we are already
 in the right domain!
 GIGC_Chunk_Run: Running for in-PET grid #           1
 GIGC_Chunk_Run: Received new grid IM, JM, LM =          15           9
          49
 =================================================
 W R F - G C   T I M E R S
    Domain           1 (Units: s)
 =================================================
  => Coupler Component                       0.547
   -- Physics & Parameterization             0.134
   -- Diagnostics Out                        0.000
  => GEOS-Chem Column                      151.590
  ===> Total Chemistry                     152.138
  => WRF                                   295.974
  ===> Total WRF-GC                        448.112
 max optd  8.2821992E+34
 max taucldi  7.6640628E-02
 max taucldw  4.4604567E-06
 Switching is not necessary as we are already
 in the right domain!
 GIGC_Chunk_Run: Running for in-PET grid #           1
 GIGC_Chunk_Run: Received new grid IM, JM, LM =          15           9
          49
 =================================================
 W R F - G C   T I M E R S
    Domain           1 (Units: s)
 =================================================
  => Coupler Component                       0.588
   -- Physics & Parameterization             0.143
   -- Diagnostics Out                        0.000
  => GEOS-Chem Column                      152.598
  ===> Total Chemistry                     153.186
  => WRF                                   314.284
  ===> Total WRF-GC                        467.470
 max optd  8.2821992E+34
 max taucldi  0.1505409    
 max taucldw  4.5739262E-06
 Switching is not necessary as we are already
 in the right domain!
 GIGC_Chunk_Run: Running for in-PET grid #           1
 GIGC_Chunk_Run: Received new grid IM, JM, LM =          15           9
          49
 =================================================
 W R F - G C   T I M E R S
    Domain           1 (Units: s)
 =================================================
  => Coupler Component                       0.627
   -- Physics & Parameterization             0.152
   -- Diagnostics Out                        0.000
  => GEOS-Chem Column                      153.632
  ===> Total Chemistry                     154.260
  => WRF                                   332.554
  ===> Total WRF-GC                        486.813
 max optd  8.2821992E+34
 max taucldi  0.2030886    
 max taucldw  4.5112688E-06
 Switching is not necessary as we are already
 in the right domain!
 GIGC_Chunk_Run: Running for in-PET grid #           1
 GIGC_Chunk_Run: Received new grid IM, JM, LM =          15           9
          49
 =================================================
 W R F - G C   T I M E R S
    Domain           1 (Units: s)
 =================================================
  => Coupler Component                       0.659
   -- Physics & Parameterization             0.161
   -- Diagnostics Out                        0.000
  => GEOS-Chem Column                      154.641
  ===> Total Chemistry                     155.300
  => WRF                                   350.749
  ===> Total WRF-GC                        506.049
 max optd  8.2821992E+34
 max taucldi  0.2367750    
 max taucldw  4.2852371E-06
 Switching is not necessary as we are already
 in the right domain!
 GIGC_Chunk_Run: Running for in-PET grid #           1
 GIGC_Chunk_Run: Received new grid IM, JM, LM =          15           9
          49
 =================================================
 W R F - G C   T I M E R S
    Domain           1 (Units: s)
 =================================================
  => Coupler Component                       0.697
   -- Physics & Parameterization             0.170
   -- Diagnostics Out                        0.000
  => GEOS-Chem Column                      155.666
  ===> Total Chemistry                     156.363
  => WRF                                   369.054
  ===> Total WRF-GC                        525.417
 max optd  8.2821992E+34
 max taucldi  0.2602835    
 max taucldw  4.4794965E-06
 Switching is not necessary as we are already
 in the right domain!
 GIGC_Chunk_Run: Running for in-PET grid #           1
 GIGC_Chunk_Run: Received new grid IM, JM, LM =          15           9
          49
 =================================================
 W R F - G C   T I M E R S
    Domain           1 (Units: s)
 =================================================
  => Coupler Component                       0.734
   -- Physics & Parameterization             0.179
   -- Diagnostics Out                        0.000
  => GEOS-Chem Column                      156.699
  ===> Total Chemistry                     157.433
  => WRF                                   387.456
  ===> Total WRF-GC                        544.890
 max optd  8.2821992E+34
 max taucldi  0.2694407    
 max taucldw  4.6893206E-06
 Switching is not necessary as we are already
 in the right domain!
 GIGC_Chunk_Run: Running for in-PET grid #           1
 GIGC_Chunk_Run: Received new grid IM, JM, LM =          15           9
          49
 =================================================
 W R F - G C   T I M E R S
    Domain           1 (Units: s)
 =================================================
  => Coupler Component                       0.773
   -- Physics & Parameterization             0.188
   -- Diagnostics Out                        0.000
  => GEOS-Chem Column                      157.745
  ===> Total Chemistry                     158.518
  => WRF                                   405.577
  ===> Total WRF-GC                        564.095
 max optd  8.2821992E+34
 max taucldi  0.2723893    
 max taucldw  4.4078811E-06
 Switching is not necessary as we are already
 in the right domain!
 GIGC_Chunk_Run: Running for in-PET grid #           1
 GIGC_Chunk_Run: Received new grid IM, JM, LM =          15           9
          49
 =================================================
 W R F - G C   T I M E R S
    Domain           1 (Units: s)
 =================================================
  => Coupler Component                       0.805
   -- Physics & Parameterization             0.197
   -- Diagnostics Out                        0.000
  => GEOS-Chem Column                      158.768
  ===> Total Chemistry                     159.574
  => WRF                                   423.783
  ===> Total WRF-GC                        583.356
 max optd  8.2821992E+34
 max taucldi  0.2656785    
 max taucldw  4.6352320E-06
 Switching is not necessary as we are already
 in the right domain!
 GIGC_Chunk_Run: Running for in-PET grid #           1
 GIGC_Chunk_Run: Received new grid IM, JM, LM =          15           9
          49
 =================================================
 W R F - G C   T I M E R S
    Domain           1 (Units: s)
 =================================================
  => Coupler Component                       0.844
   -- Physics & Parameterization             0.207
   -- Diagnostics Out                        0.000
  => GEOS-Chem Column                      159.811
  ===> Total Chemistry                     160.655
  => WRF                                   442.085
  ===> Total WRF-GC                        602.740
 max optd  8.2821992E+34
 max taucldi  0.2587381    
 max taucldw  4.4320832E-06
 Switching is not necessary as we are already
 in the right domain!
 GIGC_Chunk_Run: Running for in-PET grid #           1
 GIGC_Chunk_Run: Received new grid IM, JM, LM =          15           9
          49
 =================================================
 W R F - G C   T I M E R S
    Domain           1 (Units: s)
 =================================================
  => Coupler Component                       0.879
   -- Physics & Parameterization             0.215
   -- Diagnostics Out                        0.000
  => GEOS-Chem Column                      160.847
  ===> Total Chemistry                     161.726
  => WRF                                   460.285
  ===> Total WRF-GC                        622.011
 HOURLY EMISSIONS UPDATE TIME     7200.0       0.0
mediation_integrate: med_read_wrf_chem_emissions: Read emissions for time 2018-01-01_02:00:00
 max optd  8.2821992E+34
 max taucldi  0.2524408    
 max taucldw  4.7557810E-06
 Switching is not necessary as we are already
 in the right domain!
 GIGC_Chunk_Run: Running for in-PET grid #           1
 GIGC_Chunk_Run: Received new grid IM, JM, LM =          15           9
          49
 =================================================
 W R F - G C   T I M E R S
    Domain           1 (Units: s)
 =================================================
  => Coupler Component                       0.920
   -- Physics & Parameterization             0.224
   -- Diagnostics Out                        0.000
  => GEOS-Chem Column                      161.876
  ===> Total Chemistry                     162.796
  => WRF                                   478.489
  ===> Total WRF-GC                        641.285
 max optd  8.2821992E+34
 max taucldi  0.2414460    
 max taucldw  4.6466521E-06
 Switching is not necessary as we are already
 in the right domain!
 GIGC_Chunk_Run: Running for in-PET grid #           1
 GIGC_Chunk_Run: Received new grid IM, JM, LM =          15           9
          49
 =================================================
 W R F - G C   T I M E R S
    Domain           1 (Units: s)
 =================================================
  => Coupler Component                       0.955
   -- Physics & Parameterization             0.234
   -- Diagnostics Out                        0.000
  => GEOS-Chem Column                      162.911
  ===> Total Chemistry                     163.866
  => WRF                                   496.749
  ===> Total WRF-GC                        660.614
 max optd  8.2821992E+34
 max taucldi  0.2514772    
 max taucldw  4.9433138E-06
 Switching is not necessary as we are already
 in the right domain!
 GIGC_Chunk_Run: Running for in-PET grid #           1
 GIGC_Chunk_Run: Received new grid IM, JM, LM =          15           9
          49
 =================================================
 W R F - G C   T I M E R S
    Domain           1 (Units: s)
 =================================================
  => Coupler Component                       0.994
   -- Physics & Parameterization             0.243
   -- Diagnostics Out                        0.000
  => GEOS-Chem Column                      163.957
  ===> Total Chemistry                     164.951
  => WRF                                   514.890
  ===> Total WRF-GC                        679.841
 max optd  8.2821992E+34
 max taucldi  0.2397944    
 max taucldw  5.0367967E-06
 Switching is not necessary as we are already
 in the right domain!
 GIGC_Chunk_Run: Running for in-PET grid #           1
 GIGC_Chunk_Run: Received new grid IM, JM, LM =          15           9
          49
 =================================================
 W R F - G C   T I M E R S
    Domain           1 (Units: s)
 =================================================
  => Coupler Component                       1.036
   -- Physics & Parameterization             0.251
   -- Diagnostics Out                        0.000
  => GEOS-Chem Column                      164.979
  ===> Total Chemistry                     166.014
  => WRF                                   533.005
  ===> Total WRF-GC                        699.020
 max optd  8.2821992E+34
 max taucldi  0.2274422    
 max taucldw  5.4104944E-06
 Switching is not necessary as we are already
 in the right domain!
 GIGC_Chunk_Run: Running for in-PET grid #           1
 GIGC_Chunk_Run: Received new grid IM, JM, LM =          15           9
          49
 =================================================
 W R F - G C   T I M E R S
    Domain           1 (Units: s)
 =================================================
  => Coupler Component                       1.075
   -- Physics & Parameterization             0.260
   -- Diagnostics Out                        0.000
  => GEOS-Chem Column                      166.025
  ===> Total Chemistry                     167.099
  => WRF                                   551.173
  ===> Total WRF-GC                        718.273
 max optd  8.2821992E+34
 max taucldi  0.2194083    
 max taucldw  5.8818232E-06
 Switching is not necessary as we are already
 in the right domain!
 GIGC_Chunk_Run: Running for in-PET grid #           1
 GIGC_Chunk_Run: Received new grid IM, JM, LM =          15           9
          49
 =================================================
 W R F - G C   T I M E R S
    Domain           1 (Units: s)
 =================================================
  => Coupler Component                       1.116
   -- Physics & Parameterization             0.269
   -- Diagnostics Out                        0.000
  => GEOS-Chem Column                      167.060
  ===> Total Chemistry                     168.175
  => WRF                                   569.314
  ===> Total WRF-GC                        737.490
 max optd  8.2821992E+34
 max taucldi  0.2318061    
 max taucldw  6.4252777E-06
 Switching is not necessary as we are already
 in the right domain!
 GIGC_Chunk_Run: Running for in-PET grid #           1
 GIGC_Chunk_Run: Received new grid IM, JM, LM =          15           9
          49
 =================================================
 W R F - G C   T I M E R S
    Domain           1 (Units: s)
 =================================================
  => Coupler Component                       1.153
   -- Physics & Parameterization             0.278
   -- Diagnostics Out                        0.000
  => GEOS-Chem Column                      168.111
  ===> Total Chemistry                     169.264
  => WRF                                   587.465
  ===> Total WRF-GC                        756.729
 max optd  8.2821992E+34
 max taucldi  0.2384330    
 max taucldw  6.9782054E-06
 Switching is not necessary as we are already
 in the right domain!
 GIGC_Chunk_Run: Running for in-PET grid #           1
 GIGC_Chunk_Run: Received new grid IM, JM, LM =          15           9
          49
 =================================================
 W R F - G C   T I M E R S
    Domain           1 (Units: s)
 =================================================
  => Coupler Component                       1.193
   -- Physics & Parameterization             0.287
   -- Diagnostics Out                        0.000
  => GEOS-Chem Column                      169.150
  ===> Total Chemistry                     170.343
  => WRF                                   605.566
  ===> Total WRF-GC                        775.908
 max optd  8.2821992E+34
 max taucldi  0.2310449    
 max taucldw  7.5292251E-06
 Switching is not necessary as we are already
 in the right domain!
 GIGC_Chunk_Run: Running for in-PET grid #           1
 GIGC_Chunk_Run: Received new grid IM, JM, LM =          15           9
          49
 =================================================
 W R F - G C   T I M E R S
    Domain           1 (Units: s)
 =================================================
  => Coupler Component                       1.229
   -- Physics & Parameterization             0.296
   -- Diagnostics Out                        0.000
  => GEOS-Chem Column                      170.202
  ===> Total Chemistry                     171.431
  => WRF                                   623.688
  ===> Total WRF-GC                        795.119
 max optd  8.2821992E+34
 max taucldi  0.2298540    
 max taucldw  8.0372220E-06
 Switching is not necessary as we are already
 in the right domain!
 GIGC_Chunk_Run: Running for in-PET grid #           1
 GIGC_Chunk_Run: Received new grid IM, JM, LM =          15           9
          49
 =================================================
 W R F - G C   T I M E R S
    Domain           1 (Units: s)
 =================================================
  => Coupler Component                       1.268
   -- Physics & Parameterization             0.304
   -- Diagnostics Out                        0.000
  => GEOS-Chem Column                      171.239
  ===> Total Chemistry                     172.507
  => WRF                                   641.830
  ===> Total WRF-GC                        814.337
 max optd  8.2821992E+34
 max taucldi  0.2258897    
 max taucldw  8.5088877E-06
 Switching is not necessary as we are already
 in the right domain!
 GIGC_Chunk_Run: Running for in-PET grid #           1
 GIGC_Chunk_Run: Received new grid IM, JM, LM =          15           9
          49
 =================================================
 W R F - G C   T I M E R S
    Domain           1 (Units: s)
 =================================================
  => Coupler Component                       1.304
   -- Physics & Parameterization             0.313
   -- Diagnostics Out                        0.000
  => GEOS-Chem Column                      172.294
  ===> Total Chemistry                     173.598
  => WRF                                   659.917
  ===> Total WRF-GC                        833.514
 max optd  8.2821992E+34
 max taucldi  0.2107199    
 max taucldw  8.9446603E-06
 Switching is not necessary as we are already
 in the right domain!
 GIGC_Chunk_Run: Running for in-PET grid #           1
 GIGC_Chunk_Run: Received new grid IM, JM, LM =          15           9
          49
 =================================================
 W R F - G C   T I M E R S
    Domain           1 (Units: s)
 =================================================
  => Coupler Component                       1.342
   -- Physics & Parameterization             0.323
   -- Diagnostics Out                        0.000
  => GEOS-Chem Column                      173.335
  ===> Total Chemistry                     174.677
  => WRF                                   677.993
  ===> Total WRF-GC                        852.670
 HOURLY EMISSIONS UPDATE TIME    10800.0       0.0
mediation_integrate: med_read_wrf_chem_emissions: Read emissions for time 2018-01-01_03:00:00
 max optd  8.2821992E+34
 max taucldi  0.1920405    
 max taucldw  9.3553936E-06
 Switching is not necessary as we are already
 in the right domain!
 GIGC_Chunk_Run: Running for in-PET grid #           1
 GIGC_Chunk_Run: Received new grid IM, JM, LM =          15           9
          49
 =================================================
 W R F - G C   T I M E R S
    Domain           1 (Units: s)
 =================================================
  => Coupler Component                       1.376
   -- Physics & Parameterization             0.331
   -- Diagnostics Out                        0.000
  => GEOS-Chem Column                      174.396
  ===> Total Chemistry                     175.772
  => WRF                                   696.139
  ===> Total WRF-GC                        871.911
 max optd  8.2821992E+34
 max taucldi  0.1656558    
 max taucldw  9.7584407E-06
 Switching is not necessary as we are already
 in the right domain!
 GIGC_Chunk_Run: Running for in-PET grid #           1
 GIGC_Chunk_Run: Received new grid IM, JM, LM =          15           9
          49
 =================================================
 W R F - G C   T I M E R S
    Domain           1 (Units: s)
 =================================================
  => Coupler Component                       1.414
   -- Physics & Parameterization             0.341
   -- Diagnostics Out                        0.000
  => GEOS-Chem Column                      175.426
  ===> Total Chemistry                     176.840
  => WRF                                   714.221
  ===> Total WRF-GC                        891.061
 max optd  8.2821992E+34
 max taucldi  0.1557286    
 max taucldw  1.0157945E-05
 Switching is not necessary as we are already
 in the right domain!
 GIGC_Chunk_Run: Running for in-PET grid #           1
 GIGC_Chunk_Run: Received new grid IM, JM, LM =          15           9
          49
 =================================================
 W R F - G C   T I M E R S
    Domain           1 (Units: s)
 =================================================
  => Coupler Component                       1.452
   -- Physics & Parameterization             0.349
   -- Diagnostics Out                        0.000
  => GEOS-Chem Column                      176.464
  ===> Total Chemistry                     177.916
  => WRF                                   732.358
  ===> Total WRF-GC                        910.274
 max optd  8.2821992E+34
 max taucldi  0.1310301    
 max taucldw  1.0579392E-05
 Switching is not necessary as we are already
 in the right domain!
 GIGC_Chunk_Run: Running for in-PET grid #           1
 GIGC_Chunk_Run: Received new grid IM, JM, LM =          15           9
          49
 =================================================
 W R F - G C   T I M E R S
    Domain           1 (Units: s)
 =================================================
  => Coupler Component                       1.487
   -- Physics & Parameterization             0.358
   -- Diagnostics Out                        0.000
  => GEOS-Chem Column                      177.498
  ===> Total Chemistry                     178.985
  => WRF                                   750.466
  ===> Total WRF-GC                        929.451
 max optd  8.2821992E+34
 max taucldi  0.1345580    
 max taucldw  1.1025266E-05
 Switching is not necessary as we are already
 in the right domain!
 GIGC_Chunk_Run: Running for in-PET grid #           1
 GIGC_Chunk_Run: Received new grid IM, JM, LM =          15           9
          49
 =================================================
 W R F - G C   T I M E R S
    Domain           1 (Units: s)
 =================================================
  => Coupler Component                       1.530
   -- Physics & Parameterization             0.367
   -- Diagnostics Out                        0.000
  => GEOS-Chem Column                      178.534
  ===> Total Chemistry                     180.064
  => WRF                                   768.544
  ===> Total WRF-GC                        948.608
 max optd  8.2821992E+34
 max taucldi  0.1418270    
 max taucldw  0.9587277    
 Switching is not necessary as we are already
 in the right domain!
 GIGC_Chunk_Run: Running for in-PET grid #           1
 GIGC_Chunk_Run: Received new grid IM, JM, LM =          15           9
          49
 =================================================
 W R F - G C   T I M E R S
    Domain           1 (Units: s)
 =================================================
  => Coupler Component                       1.565
   -- Physics & Parameterization             0.376
   -- Diagnostics Out                        0.000
  => GEOS-Chem Column                      179.587
  ===> Total Chemistry                     181.152
  => WRF                                   786.901
  ===> Total WRF-GC                        968.053
 max optd  8.2821992E+34
 max taucldi  0.1587781    
 max taucldw   1.811944    
 Switching is not necessary as we are already
 in the right domain!
 GIGC_Chunk_Run: Running for in-PET grid #           1
 GIGC_Chunk_Run: Received new grid IM, JM, LM =          15           9
          49
 =================================================
 W R F - G C   T I M E R S
    Domain           1 (Units: s)
 =================================================
  => Coupler Component                       1.599
   -- Physics & Parameterization             0.384
   -- Diagnostics Out                        0.000
  => GEOS-Chem Column                      180.647
  ===> Total Chemistry                     182.246
  => WRF                                   805.078
  ===> Total WRF-GC                        987.324
 max optd  8.2821992E+34
 max taucldi  0.1519895    
 max taucldw   1.795030    
 Switching is not necessary as we are already
 in the right domain!
 GIGC_Chunk_Run: Running for in-PET grid #           1
 GIGC_Chunk_Run: Received new grid IM, JM, LM =          15           9
          49
 =================================================
 W R F - G C   T I M E R S
    Domain           1 (Units: s)
 =================================================
  => Coupler Component                       1.636
   -- Physics & Parameterization             0.393
   -- Diagnostics Out                        0.000
  => GEOS-Chem Column                      181.696
  ===> Total Chemistry                     183.331
  => WRF                                   823.123
  ===> Total WRF-GC                       1006.454
 max optd  8.2821992E+34
 max taucldi  0.1484277    
 max taucldw   2.073121    
 Switching is not necessary as we are already
 in the right domain!
 GIGC_Chunk_Run: Running for in-PET grid #           1
 GIGC_Chunk_Run: Received new grid IM, JM, LM =          15           9
          49
 =================================================
 W R F - G C   T I M E R S
    Domain           1 (Units: s)
 =================================================
  => Coupler Component                       1.674
   -- Physics & Parameterization             0.402
   -- Diagnostics Out                        0.000
  => GEOS-Chem Column                      182.737
  ===> Total Chemistry                     184.411
  => WRF                                   841.342
  ===> Total WRF-GC                       1025.753
 max optd  8.2821992E+34
 max taucldi  0.1415729    
 max taucldw   2.470670    
 Switching is not necessary as we are already
 in the right domain!
 GIGC_Chunk_Run: Running for in-PET grid #           1
 GIGC_Chunk_Run: Received new grid IM, JM, LM =          15           9
          49
 =================================================
 W R F - G C   T I M E R S
    Domain           1 (Units: s)
 =================================================
  => Coupler Component                       1.711
   -- Physics & Parameterization             0.411
   -- Diagnostics Out                        0.000
  => GEOS-Chem Column                      183.780
  ===> Total Chemistry                     185.491
  => WRF                                   859.489
  ===> Total WRF-GC                       1044.980
 max optd  8.2821992E+34
 max taucldi  0.1257230    
 max taucldw   3.017258    
 Switching is not necessary as we are already
 in the right domain!
 GIGC_Chunk_Run: Running for in-PET grid #           1
 GIGC_Chunk_Run: Received new grid IM, JM, LM =          15           9
          49
 =================================================
 W R F - G C   T I M E R S
    Domain           1 (Units: s)
 =================================================
  => Coupler Component                       1.746
   -- Physics & Parameterization             0.420
   -- Diagnostics Out                        0.000
  => GEOS-Chem Column                      184.822
  ===> Total Chemistry                     186.568
  => WRF                                   877.609
  ===> Total WRF-GC                       1064.177
 max optd  8.2821992E+34
 max taucldi  0.1106602    
 max taucldw   3.265034    
 Switching is not necessary as we are already
 in the right domain!
 GIGC_Chunk_Run: Running for in-PET grid #           1
 GIGC_Chunk_Run: Received new grid IM, JM, LM =          15           9
          49
 =================================================
 W R F - G C   T I M E R S
    Domain           1 (Units: s)
 =================================================
  => Coupler Component                       1.784
   -- Physics & Parameterization             0.429
   -- Diagnostics Out                        0.000
  => GEOS-Chem Column                      185.865
  ===> Total Chemistry                     187.649
  => WRF                                   895.766
  ===> Total WRF-GC                       1083.415
 HOURLY EMISSIONS UPDATE TIME    14400.0       0.0
mediation_integrate: med_read_wrf_chem_emissions: Read emissions for time 2018-01-01_04:00:00
 max optd  8.2821992E+34
 max taucldi  9.5876187E-02
 max taucldw   2.876190    
 Switching is not necessary as we are already
 in the right domain!
 GIGC_Chunk_Run: Running for in-PET grid #           1
 GIGC_Chunk_Run: Received new grid IM, JM, LM =          15           9
          49
 =================================================
 W R F - G C   T I M E R S
    Domain           1 (Units: s)
 =================================================
  => Coupler Component                       1.818
   -- Physics & Parameterization             0.438
   -- Diagnostics Out                        0.000
  => GEOS-Chem Column                      186.931
  ===> Total Chemistry                     188.748
  => WRF                                   913.922
  ===> Total WRF-GC                       1102.670
 max optd  8.2821992E+34
 max taucldi  7.6976530E-02
 max taucldw   2.411482    
 Switching is not necessary as we are already
 in the right domain!
 GIGC_Chunk_Run: Running for in-PET grid #           1
 GIGC_Chunk_Run: Received new grid IM, JM, LM =          15           9
          49
 =================================================
 W R F - G C   T I M E R S
    Domain           1 (Units: s)
 =================================================
  => Coupler Component                       1.852
   -- Physics & Parameterization             0.447
   -- Diagnostics Out                        0.000
  => GEOS-Chem Column                      187.969
  ===> Total Chemistry                     189.822
  => WRF                                   932.048
  ===> Total WRF-GC                       1121.870
 max optd  8.2821992E+34
 max taucldi  0.1575459    
 max taucldw   2.471082    
 Switching is not necessary as we are already
 in the right domain!
 GIGC_Chunk_Run: Running for in-PET grid #           1
 GIGC_Chunk_Run: Received new grid IM, JM, LM =          15           9
          49
 =================================================
 W R F - G C   T I M E R S
    Domain           1 (Units: s)
 =================================================
  => Coupler Component                       1.886
   -- Physics & Parameterization             0.456
   -- Diagnostics Out                        0.000
  => GEOS-Chem Column                      189.007
  ===> Total Chemistry                     190.893
  => WRF                                   950.290
  ===> Total WRF-GC                       1141.183
 max optd  8.2821992E+34
 max taucldi  0.2154168    
 max taucldw   2.831467    
 Switching is not necessary as we are already
 in the right domain!
 GIGC_Chunk_Run: Running for in-PET grid #           1
 GIGC_Chunk_Run: Received new grid IM, JM, LM =          15           9
          49
 =================================================
 W R F - G C   T I M E R S
    Domain           1 (Units: s)
 =================================================
  => Coupler Component                       1.925
   -- Physics & Parameterization             0.465
   -- Diagnostics Out                        0.000
  => GEOS-Chem Column                      190.050
  ===> Total Chemistry                     191.976
  => WRF                                   968.422
  ===> Total WRF-GC                       1160.398
 max optd  8.2821992E+34
 max taucldi  0.2565568    
 max taucldw   3.156932    
 Switching is not necessary as we are already
 in the right domain!
 GIGC_Chunk_Run: Running for in-PET grid #           1
 GIGC_Chunk_Run: Received new grid IM, JM, LM =          15           9
          49
 =================================================
 W R F - G C   T I M E R S
    Domain           1 (Units: s)
 =================================================
  => Coupler Component                       1.964
   -- Physics & Parameterization             0.473
   -- Diagnostics Out                        0.000
  => GEOS-Chem Column                      191.086
  ===> Total Chemistry                     193.051
  => WRF                                   986.579
  ===> Total WRF-GC                       1179.630
 max optd  8.2821992E+34
 max taucldi  0.2807938    
 max taucldw   3.580666    
 Switching is not necessary as we are already
 in the right domain!
 GIGC_Chunk_Run: Running for in-PET grid #           1
 GIGC_Chunk_Run: Received new grid IM, JM, LM =          15           9
          49
 =================================================
 W R F - G C   T I M E R S
    Domain           1 (Units: s)
 =================================================
  => Coupler Component                       2.002
   -- Physics & Parameterization             0.482
   -- Diagnostics Out                        0.000
  => GEOS-Chem Column                      192.127
  ===> Total Chemistry                     194.128
  => WRF                                  1004.735
  ===> Total WRF-GC                       1198.864
 max optd  8.2821992E+34
 max taucldi  0.2902129    
 max taucldw   4.148490    
 Switching is not necessary as we are already
 in the right domain!
 GIGC_Chunk_Run: Running for in-PET grid #           1
 GIGC_Chunk_Run: Received new grid IM, JM, LM =          15           9
          49
 =================================================
 W R F - G C   T I M E R S
    Domain           1 (Units: s)
 =================================================
  => Coupler Component                       2.036
   -- Physics & Parameterization             0.491
   -- Diagnostics Out                        0.000
  => GEOS-Chem Column                      193.181
  ===> Total Chemistry                     195.217
  => WRF                                  1022.947
  ===> Total WRF-GC                       1218.164
 max optd  8.2821992E+34
 max taucldi  0.2980517    
 max taucldw   5.189521    
 Switching is not necessary as we are already
 in the right domain!
 GIGC_Chunk_Run: Running for in-PET grid #           1
 GIGC_Chunk_Run: Received new grid IM, JM, LM =          15           9
          49
 =================================================
 W R F - G C   T I M E R S
    Domain           1 (Units: s)
 =================================================
  => Coupler Component                       2.074
   -- Physics & Parameterization             0.500
   -- Diagnostics Out                        0.000
  => GEOS-Chem Column                      194.228
  ===> Total Chemistry                     196.302
  => WRF                                  1041.061
  ===> Total WRF-GC                       1237.363
 max optd  8.2821992E+34
 max taucldi  0.3063974    
 max taucldw   6.024649    
 Switching is not necessary as we are already
 in the right domain!
 GIGC_Chunk_Run: Running for in-PET grid #           1
 GIGC_Chunk_Run: Received new grid IM, JM, LM =          15           9
          49
 =================================================
 W R F - G C   T I M E R S
    Domain           1 (Units: s)
 =================================================
  => Coupler Component                       2.106
   -- Physics & Parameterization             0.509
   -- Diagnostics Out                        0.000
  => GEOS-Chem Column                      195.293
  ===> Total Chemistry                     197.399
  => WRF                                  1059.219
  ===> Total WRF-GC                       1256.618
 max optd  8.2821992E+34
 max taucldi  0.3156853    
 max taucldw   6.034172    
 Switching is not necessary as we are already
 in the right domain!
 GIGC_Chunk_Run: Running for in-PET grid #           1
 GIGC_Chunk_Run: Received new grid IM, JM, LM =          15           9
          49
 =================================================
 W R F - G C   T I M E R S
    Domain           1 (Units: s)
 =================================================
  => Coupler Component                       2.141
   -- Physics & Parameterization             0.518
   -- Diagnostics Out                        0.000
  => GEOS-Chem Column                      196.360
  ===> Total Chemistry                     198.501
  => WRF                                  1077.348
  ===> Total WRF-GC                       1275.849
 max optd  8.2821992E+34
 max taucldi  0.3289753    
 max taucldw   5.757509    
 Switching is not necessary as we are already
 in the right domain!
 GIGC_Chunk_Run: Running for in-PET grid #           1
 GIGC_Chunk_Run: Received new grid IM, JM, LM =          15           9
          49
 =================================================
 W R F - G C   T I M E R S
    Domain           1 (Units: s)
 =================================================
  => Coupler Component                       2.177
   -- Physics & Parameterization             0.527
   -- Diagnostics Out                        0.000
  => GEOS-Chem Column                      197.416
  ===> Total Chemistry                     199.593
  => WRF                                  1095.430
  ===> Total WRF-GC                       1295.023
 max optd  8.2821992E+34
 max taucldi  0.3386574    
 max taucldw   5.513355    
 Switching is not necessary as we are already
 in the right domain!
 GIGC_Chunk_Run: Running for in-PET grid #           1
 GIGC_Chunk_Run: Received new grid IM, JM, LM =          15           9
          49
 =================================================
 W R F - G C   T I M E R S
    Domain           1 (Units: s)
 =================================================
  => Coupler Component                       2.211
   -- Physics & Parameterization             0.536
   -- Diagnostics Out                        0.000
  => GEOS-Chem Column                      198.475
  ===> Total Chemistry                     200.685
  => WRF                                  1113.483
  ===> Total WRF-GC                       1314.169
 HOURLY EMISSIONS UPDATE TIME    18000.0       0.0
mediation_integrate: med_read_wrf_chem_emissions: Read emissions for time 2018-01-01_05:00:00
 max optd  8.2821992E+34
 max taucldi  0.4053460    
 max taucldw   4.750883    
 Switching is not necessary as we are already
 in the right domain!
 GIGC_Chunk_Run: Running for in-PET grid #           1
 GIGC_Chunk_Run: Received new grid IM, JM, LM =          15           9
          49
 =================================================
 W R F - G C   T I M E R S
    Domain           1 (Units: s)
 =================================================
  => Coupler Component                       2.243
   -- Physics & Parameterization             0.545
   -- Diagnostics Out                        0.000
  => GEOS-Chem Column                      199.543
  ===> Total Chemistry                     201.786
  => WRF                                  1131.654
  ===> Total WRF-GC                       1333.440
 max optd  8.2821992E+34
 max taucldi  0.4880721    
 max taucldw   3.968940    
 Switching is not necessary as we are already
 in the right domain!
 GIGC_Chunk_Run: Running for in-PET grid #           1
 GIGC_Chunk_Run: Received new grid IM, JM, LM =          15           9
          49
 =================================================
 W R F - G C   T I M E R S
    Domain           1 (Units: s)
 =================================================
  => Coupler Component                       2.276
   -- Physics & Parameterization             0.553
   -- Diagnostics Out                        0.000
  => GEOS-Chem Column                      200.600
  ===> Total Chemistry                     202.876
  => WRF                                  1149.752
  ===> Total WRF-GC                       1352.629
 max optd  8.2821992E+34
 max taucldi  0.5445694    
 max taucldw   3.610771    
 Switching is not necessary as we are already
 in the right domain!
 GIGC_Chunk_Run: Running for in-PET grid #           1
 GIGC_Chunk_Run: Received new grid IM, JM, LM =          15           9
          49
 =================================================
 W R F - G C   T I M E R S
    Domain           1 (Units: s)
 =================================================
  => Coupler Component                       2.309
   -- Physics & Parameterization             0.562
   -- Diagnostics Out                        0.000
  => GEOS-Chem Column                      201.659
  ===> Total Chemistry                     203.969
  => WRF                                  1167.849
  ===> Total WRF-GC                       1371.818
 max optd  8.2821992E+34
 max taucldi  0.5384092    
 max taucldw   3.744255    
 Switching is not necessary as we are already
 in the right domain!
 GIGC_Chunk_Run: Running for in-PET grid #           1
 GIGC_Chunk_Run: Received new grid IM, JM, LM =          15           9
          49
 =================================================
 W R F - G C   T I M E R S
    Domain           1 (Units: s)
 =================================================
  => Coupler Component                       2.343
   -- Physics & Parameterization             0.571
   -- Diagnostics Out                        0.000
  => GEOS-Chem Column                      202.722
  ===> Total Chemistry                     205.065
  => WRF                                  1185.987
  ===> Total WRF-GC                       1391.052
 max optd  8.2821992E+34
 max taucldi  0.5046180    
 max taucldw   3.759415    
 Switching is not necessary as we are already
 in the right domain!
 GIGC_Chunk_Run: Running for in-PET grid #           1
 GIGC_Chunk_Run: Received new grid IM, JM, LM =          15           9
          49
 =================================================
 W R F - G C   T I M E R S
    Domain           1 (Units: s)
 =================================================
  => Coupler Component                       2.375
   -- Physics & Parameterization             0.580
   -- Diagnostics Out                        0.000
  => GEOS-Chem Column                      203.770
  ===> Total Chemistry                     206.145
  => WRF                                  1204.168
  ===> Total WRF-GC                       1410.313
 max optd  8.2821992E+34
 max taucldi  0.5142078    
 max taucldw   3.439349    
 Switching is not necessary as we are already
 in the right domain!
 GIGC_Chunk_Run: Running for in-PET grid #           1
 GIGC_Chunk_Run: Received new grid IM, JM, LM =          15           9
          49
 =================================================
 W R F - G C   T I M E R S
    Domain           1 (Units: s)
 =================================================
  => Coupler Component                       2.417
   -- Physics & Parameterization             0.589
   -- Diagnostics Out                        0.000
  => GEOS-Chem Column                      204.798
  ===> Total Chemistry                     207.215
  => WRF                                  1222.262
  ===> Total WRF-GC                       1429.477
 max optd  8.2821992E+34
 max taucldi  0.5180236    
 max taucldw   2.327880    
 Switching is not necessary as we are already
 in the right domain!
 GIGC_Chunk_Run: Running for in-PET grid #           1
 GIGC_Chunk_Run: Received new grid IM, JM, LM =          15           9
          49
 =================================================
 W R F - G C   T I M E R S
    Domain           1 (Units: s)
 =================================================
  => Coupler Component                       2.450
   -- Physics & Parameterization             0.598
   -- Diagnostics Out                        0.000
  => GEOS-Chem Column                      205.854
  ===> Total Chemistry                     208.304
  => WRF                                  1240.482
  ===> Total WRF-GC                       1448.785
 max optd  8.2821992E+34
 max taucldi  0.5150571    
 max taucldw   1.137312    
 Switching is not necessary as we are already
 in the right domain!
 GIGC_Chunk_Run: Running for in-PET grid #           1
 GIGC_Chunk_Run: Received new grid IM, JM, LM =          15           9
          49
 =================================================
 W R F - G C   T I M E R S
    Domain           1 (Units: s)
 =================================================
  => Coupler Component                       2.481
   -- Physics & Parameterization             0.607
   -- Diagnostics Out                        0.000
  => GEOS-Chem Column                      206.925
  ===> Total Chemistry                     209.406
  => WRF                                  1258.604
  ===> Total WRF-GC                       1468.010
 max optd  8.2821992E+34
 max taucldi  0.5055483    
 max taucldw  0.1922850    
 Switching is not necessary as we are already
 in the right domain!
 GIGC_Chunk_Run: Running for in-PET grid #           1
 GIGC_Chunk_Run: Received new grid IM, JM, LM =          15           9
          49
 =================================================
 W R F - G C   T I M E R S
    Domain           1 (Units: s)
 =================================================
  => Coupler Component                       2.514
   -- Physics & Parameterization             0.616
   -- Diagnostics Out                        0.000
  => GEOS-Chem Column                      207.981
  ===> Total Chemistry                     210.495
  => WRF                                  1276.761
  ===> Total WRF-GC                       1487.256
 max optd  8.2821992E+34
 max taucldi  0.4907973    
 max taucldw  1.9918542E-05
 Switching is not necessary as we are already
 in the right domain!
 GIGC_Chunk_Run: Running for in-PET grid #           1
 GIGC_Chunk_Run: Received new grid IM, JM, LM =          15           9
          49
 =================================================
 W R F - G C   T I M E R S
    Domain           1 (Units: s)
 =================================================
  => Coupler Component                       2.550
   -- Physics & Parameterization             0.625
   -- Diagnostics Out                        0.000
  => GEOS-Chem Column                      209.023
  ===> Total Chemistry                     211.573
  => WRF                                  1295.164
  ===> Total WRF-GC                       1506.737
 max optd  8.2821992E+34
 max taucldi  0.4738871    
 max taucldw  2.0112206E-05
 Switching is not necessary as we are already
 in the right domain!
 GIGC_Chunk_Run: Running for in-PET grid #           1
 GIGC_Chunk_Run: Received new grid IM, JM, LM =          15           9
          49
 =================================================
 W R F - G C   T I M E R S
    Domain           1 (Units: s)
 =================================================
  => Coupler Component                       2.582
   -- Physics & Parameterization             0.633
   -- Diagnostics Out                        0.000
  => GEOS-Chem Column                      210.085
  ===> Total Chemistry                     212.667
  => WRF                                  1313.313
  ===> Total WRF-GC                       1525.980
 max optd  8.2821992E+34
 max taucldi  0.4627901    
 max taucldw  2.0309639E-05
 Switching is not necessary as we are already
 in the right domain!
 GIGC_Chunk_Run: Running for in-PET grid #           1
 GIGC_Chunk_Run: Received new grid IM, JM, LM =          15           9
          49
 =================================================
 W R F - G C   T I M E R S
    Domain           1 (Units: s)
 =================================================
  => Coupler Component                       2.613
   -- Physics & Parameterization             0.642
   -- Diagnostics Out                        0.000
  => GEOS-Chem Column                      211.145
  ===> Total Chemistry                     213.758
  => WRF                                  1331.436
  ===> Total WRF-GC                       1545.194
 HOURLY EMISSIONS UPDATE TIME    21600.0       0.0
mediation_integrate: med_read_wrf_chem_emissions: Read emissions for time 2018-01-01_06:00:00
 max optd  8.2821992E+34
 max taucldi  0.3865233    
 max taucldw   1.002094    
 Switching is not necessary as we are already
 in the right domain!
 GIGC_Chunk_Run: Running for in-PET grid #           1
 GIGC_Chunk_Run: Received new grid IM, JM, LM =          15           9
          49
 =================================================
 W R F - G C   T I M E R S
    Domain           1 (Units: s)
 =================================================
  => Coupler Component                       2.652
   -- Physics & Parameterization             0.652
   -- Diagnostics Out                        0.000
  => GEOS-Chem Column                      212.199
  ===> Total Chemistry                     214.851
  => WRF                                  1790.114
  ===> Total WRF-GC                       2004.965
 max optd  8.2821992E+34
 max taucldi  0.2724992    
 max taucldw   2.223894    
 Switching is not necessary as we are already
 in the right domain!
 GIGC_Chunk_Run: Running for in-PET grid #           1
 GIGC_Chunk_Run: Received new grid IM, JM, LM =          15           9
          49
 =================================================
 W R F - G C   T I M E R S
    Domain           1 (Units: s)
 =================================================
  => Coupler Component                       2.686
   -- Physics & Parameterization             0.661
   -- Diagnostics Out                        0.000
  => GEOS-Chem Column                      213.256
  ===> Total Chemistry                     215.942
  => WRF                                  1808.253
  ===> Total WRF-GC                       2024.195
 max optd  8.2821992E+34
 max taucldi  0.2030277    
 max taucldw   3.961077    
 Switching is not necessary as we are already
 in the right domain!
 GIGC_Chunk_Run: Running for in-PET grid #           1
 GIGC_Chunk_Run: Received new grid IM, JM, LM =          15           9
          49
 =================================================
 W R F - G C   T I M E R S
    Domain           1 (Units: s)
 =================================================
  => Coupler Component                       2.719
   -- Physics & Parameterization             0.670
   -- Diagnostics Out                        0.000
  => GEOS-Chem Column                      214.307
  ===> Total Chemistry                     217.026
  => WRF                                  1826.535
  ===> Total WRF-GC                       2043.562
 max optd  8.2821992E+34
 max taucldi  0.1519846    
 max taucldw   5.060276    
 Switching is not necessary as we are already
 in the right domain!
 GIGC_Chunk_Run: Running for in-PET grid #           1
 GIGC_Chunk_Run: Received new grid IM, JM, LM =          15           9
          49
 =================================================
 W R F - G C   T I M E R S
    Domain           1 (Units: s)
 =================================================
  => Coupler Component                       2.755
[...]
  => GEOS-Chem Column                      262.031
  ===> Total Chemistry                     266.236
  => WRF                                  2644.649
  ===> Total WRF-GC                       2910.884
 HOURLY EMISSIONS UPDATE TIME    36000.0       0.0
mediation_integrate: med_read_wrf_chem_emissions: Read emissions for time 2018-01-01_10:00:00
 max optd  8.2821992E+34
 max taucldi  0.3044729    
 max taucldw  3.0933028E-05
 Switching is not necessary as we are already
 in the right domain!
 GIGC_Chunk_Run: Running for in-PET grid #           1
 GIGC_Chunk_Run: Received new grid IM, JM, LM =          15           9
          49
 =================================================
 W R F - G C   T I M E R S
    Domain           1 (Units: s)
 =================================================
  => Coupler Component                       4.237
   -- Physics & Parameterization             1.079
   -- Diagnostics Out                        0.000
  => GEOS-Chem Column                      263.078
  ===> Total Chemistry                     267.315
  => WRF                                  2662.883
  ===> Total WRF-GC                       2930.198
 max optd  8.2821992E+34
 max taucldi  0.3150402    
 max taucldw  3.1167983E-05
 Switching is not necessary as we are already
 in the right domain!
 GIGC_Chunk_Run: Running for in-PET grid #           1
 GIGC_Chunk_Run: Received new grid IM, JM, LM =          15           9
          49
 =================================================
 W R F - G C   T I M E R S
    Domain           1 (Units: s)
 =================================================
  => Coupler Component                       4.271
   -- Physics & Parameterization             1.088
   -- Diagnostics Out                        0.000
  => GEOS-Chem Column                      264.150
  ===> Total Chemistry                     268.421
  => WRF                                  2681.046
  ===> Total WRF-GC                       2949.467
 max optd  8.2821992E+34
 max taucldi  0.3283590    
 max taucldw  3.1392570E-05
 Switching is not necessary as we are already
 in the right domain!
 GIGC_Chunk_Run: Running for in-PET grid #           1
 GIGC_Chunk_Run: Received new grid IM, JM, LM =          15           9
          49
 =================================================
 W R F - G C   T I M E R S
    Domain           1 (Units: s)
 =================================================
  => Coupler Component                       4.305
   -- Physics & Parameterization             1.096
   -- Diagnostics Out                        0.000
  => GEOS-Chem Column                      265.214
  ===> Total Chemistry                     269.519
  => WRF                                  2699.177
  ===> Total WRF-GC                       2968.696
 max optd  8.2821992E+34
 max taucldi  0.3113970    
 max taucldw  3.1621843E-05
 Switching is not necessary as we are already
 in the right domain!
 GIGC_Chunk_Run: Running for in-PET grid #           1
 GIGC_Chunk_Run: Received new grid IM, JM, LM =          15           9
          49
 =================================================
 W R F - G C   T I M E R S
    Domain           1 (Units: s)
 =================================================
  => Coupler Component                       4.337
   -- Physics & Parameterization             1.105
   -- Diagnostics Out                        0.000
  => GEOS-Chem Column                      266.284
  ===> Total Chemistry                     270.621
  => WRF                                  2717.412
  ===> Total WRF-GC                       2988.034
 max optd  8.2821992E+34
 max taucldi  0.3036370    
 max taucldw  3.1852305E-05
 Switching is not necessary as we are already
 in the right domain!
 GIGC_Chunk_Run: Running for in-PET grid #           1
 GIGC_Chunk_Run: Received new grid IM, JM, LM =          15           9
          49
 =================================================
 W R F - G C   T I M E R S
    Domain           1 (Units: s)
 =================================================
  => Coupler Component                       4.369
   -- Physics & Parameterization             1.114
   -- Diagnostics Out                        0.000
  => GEOS-Chem Column                      267.359
  ===> Total Chemistry                     271.728
  => WRF                                  2735.586
  ===> Total WRF-GC                       3007.314
 max optd  8.2821992E+34
 max taucldi  0.3098058    
 max taucldw  3.2085511E-05
 Switching is not necessary as we are already
 in the right domain!
 GIGC_Chunk_Run: Running for in-PET grid #           1
 GIGC_Chunk_Run: Received new grid IM, JM, LM =          15           9
          49
 =================================================
 W R F - G C   T I M E R S
    Domain           1 (Units: s)
 =================================================
  => Coupler Component                       4.401
   -- Physics & Parameterization             1.123
   -- Diagnostics Out                        0.000
  => GEOS-Chem Column                      268.430
  ===> Total Chemistry                     272.831
  => WRF                                  2753.673
  ===> Total WRF-GC                       3026.504
 max optd  8.2821992E+34
 max taucldi  0.3103040    
 max taucldw  3.2319767E-05
 Switching is not necessary as we are already
 in the right domain!
 GIGC_Chunk_Run: Running for in-PET grid #           1
 GIGC_Chunk_Run: Received new grid IM, JM, LM =          15           9
          49
 =================================================
 W R F - G C   T I M E R S
    Domain           1 (Units: s)
 =================================================
  => Coupler Component                       4.433
   -- Physics & Parameterization             1.132
   -- Diagnostics Out                        0.000
  => GEOS-Chem Column                      269.500
  ===> Total Chemistry                     273.932
  => WRF                                  2771.847
  ===> Total WRF-GC                       3045.779
 max optd  8.2821992E+34
 max taucldi  0.2992945    
 max taucldw  3.2560281E-05
 Switching is not necessary as we are already
 in the right domain!
 GIGC_Chunk_Run: Running for in-PET grid #           1
 GIGC_Chunk_Run: Received new grid IM, JM, LM =          15           9
          49
 =================================================
 W R F - G C   T I M E R S
    Domain           1 (Units: s)
 =================================================
  => Coupler Component                       4.466
   -- Physics & Parameterization             1.141
   -- Diagnostics Out                        0.000
  => GEOS-Chem Column                      270.561
  ===> Total Chemistry                     275.027
  => WRF                                  2790.010
  ===> Total WRF-GC                       3065.036
 max optd  8.2821992E+34
 max taucldi  0.2811820    
 max taucldw  3.2806060E-05
 Switching is not necessary as we are already
 in the right domain!
 GIGC_Chunk_Run: Running for in-PET grid #           1
 GIGC_Chunk_Run: Received new grid IM, JM, LM =          15           9
          49
 =================================================
 W R F - G C   T I M E R S
    Domain           1 (Units: s)
 =================================================
  => Coupler Component                       4.498
   -- Physics & Parameterization             1.150
   -- Diagnostics Out                        0.000
  => GEOS-Chem Column                      271.611
  ===> Total Chemistry                     276.109
  => WRF                                  2808.152
  ===> Total WRF-GC                       3084.261
 max optd  8.2821992E+34
 max taucldi  0.2578456    
 max taucldw  3.3039552E-05
 Switching is not necessary as we are already
 in the right domain!
 GIGC_Chunk_Run: Running for in-PET grid #           1
 GIGC_Chunk_Run: Received new grid IM, JM, LM =          15           9
          49
 =================================================
 W R F - G C   T I M E R S
    Domain           1 (Units: s)
 =================================================
  => Coupler Component                       4.529
   -- Physics & Parameterization             1.159
   -- Diagnostics Out                        0.000
  => GEOS-Chem Column                      272.688
  ===> Total Chemistry                     277.217
  => WRF                                  2826.369
  ===> Total WRF-GC                       3103.586
 max optd  8.2821992E+34
 max taucldi  0.2395818    
 max taucldw  3.3284399E-05
 Switching is not necessary as we are already
 in the right domain!
 GIGC_Chunk_Run: Running for in-PET grid #           1
 GIGC_Chunk_Run: Received new grid IM, JM, LM =          15           9
          49
 =================================================
 W R F - G C   T I M E R S
    Domain           1 (Units: s)
 =================================================
  => Coupler Component                       4.562
   -- Physics & Parameterization             1.167
   -- Diagnostics Out                        0.000
  => GEOS-Chem Column                      273.762
  ===> Total Chemistry                     278.324
  => WRF                                  2844.497
  ===> Total WRF-GC                       3122.821
 max optd  8.2821992E+34
 max taucldi  0.2201217    
 max taucldw  3.3516204E-05
 Switching is not necessary as we are already
 in the right domain!
 GIGC_Chunk_Run: Running for in-PET grid #           1
 GIGC_Chunk_Run: Received new grid IM, JM, LM =          15           9
          49
 =================================================
 W R F - G C   T I M E R S
    Domain           1 (Units: s)
 =================================================
  => Coupler Component                       4.594
   -- Physics & Parameterization             1.176
   -- Diagnostics Out                        0.000
  => GEOS-Chem Column                      274.827
  ===> Total Chemistry                     279.421
  => WRF                                  2862.694
  ===> Total WRF-GC                       3142.114
 HOURLY EMISSIONS UPDATE TIME    39600.0       0.0
mediation_integrate: med_read_wrf_chem_emissions: Read emissions for time 2018-01-01_11:00:00
 max optd  8.2821992E+34
 max taucldi  0.2120466    
 max taucldw  3.3697812E-05
 Switching is not necessary as we are already
 in the right domain!
 GIGC_Chunk_Run: Running for in-PET grid #           1
 GIGC_Chunk_Run: Received new grid IM, JM, LM =          15           9
          49
 =================================================
 W R F - G C   T I M E R S
    Domain           1 (Units: s)
 =================================================
  => Coupler Component                       4.627
   -- Physics & Parameterization             1.185
   -- Diagnostics Out                        0.000
  => GEOS-Chem Column                      275.876
  ===> Total Chemistry                     280.503
  => WRF                                  2880.881
  ===> Total WRF-GC                       3161.384
 max optd  8.2821992E+34
 max taucldi  0.2032550    
 max taucldw  3.3855740E-05
 Switching is not necessary as we are already
 in the right domain!
 GIGC_Chunk_Run: Running for in-PET grid #           1
 GIGC_Chunk_Run: Received new grid IM, JM, LM =          15           9
          49
 =================================================
 W R F - G C   T I M E R S
    Domain           1 (Units: s)
 =================================================
  => Coupler Component                       4.659
   -- Physics & Parameterization             1.194
   -- Diagnostics Out                        0.000
  => GEOS-Chem Column                      276.937
  ===> Total Chemistry                     281.596
  => WRF                                  2899.017
  ===> Total WRF-GC                       3180.614
 max optd  8.2821992E+34
 max taucldi  0.2167880    
 max taucldw  3.3966517E-05
 Switching is not necessary as we are already
 in the right domain!
 GIGC_Chunk_Run: Running for in-PET grid #           1
 GIGC_Chunk_Run: Received new grid IM, JM, LM =          15           9
          49
 =================================================
 W R F - G C   T I M E R S
    Domain           1 (Units: s)
 =================================================
  => Coupler Component                       4.690
   -- Physics & Parameterization             1.203
   -- Diagnostics Out                        0.000
  => GEOS-Chem Column                      278.012
  ===> Total Chemistry                     282.703
  => WRF                                  2917.260
  ===> Total WRF-GC                       3199.963
 max optd  8.2821992E+34
 max taucldi  0.2177633    
 max taucldw  3.4016331E-05
 Switching is not necessary as we are already
 in the right domain!
 GIGC_Chunk_Run: Running for in-PET grid #           1
 GIGC_Chunk_Run: Received new grid IM, JM, LM =          15           9
          49
 =================================================
 W R F - G C   T I M E R S
    Domain           1 (Units: s)
 =================================================
  => Coupler Component                       4.722
   -- Physics & Parameterization             1.212
   -- Diagnostics Out                        0.000
  => GEOS-Chem Column                      279.086
  ===> Total Chemistry                     283.808
  => WRF                                  2935.529
  ===> Total WRF-GC                       3219.337
 max optd  8.2821992E+34
 max taucldi  0.2131154    
 max taucldw  3.3996639E-05
 Switching is not necessary as we are already
 in the right domain!
 GIGC_Chunk_Run: Running for in-PET grid #           1
 GIGC_Chunk_Run: Received new grid IM, JM, LM =          15           9
          49
 =================================================
 W R F - G C   T I M E R S
    Domain           1 (Units: s)
 =================================================
  => Coupler Component                       4.756
   -- Physics & Parameterization             1.221
   -- Diagnostics Out                        0.000
  => GEOS-Chem Column                      280.153
  ===> Total Chemistry                     284.909
  => WRF                                  2953.939
  ===> Total WRF-GC                       3238.848
 max optd  8.2821992E+34
 max taucldi  0.2143113    
 max taucldw  3.4026150E-05
 Switching is not necessary as we are already
 in the right domain!
 GIGC_Chunk_Run: Running for in-PET grid #           1
 GIGC_Chunk_Run: Received new grid IM, JM, LM =          15           9
          49
 =================================================
 W R F - G C   T I M E R S
    Domain           1 (Units: s)
 =================================================
  => Coupler Component                       4.789
   -- Physics & Parameterization             1.229
   -- Diagnostics Out                        0.000
  => GEOS-Chem Column                      281.217
  ===> Total Chemistry                     286.006
  => WRF                                  2972.326
  ===> Total WRF-GC                       3258.332
 max optd  8.2821992E+34
 max taucldi  0.2069841    
 max taucldw  3.4146691E-05
 Switching is not necessary as we are already
 in the right domain!
 GIGC_Chunk_Run: Running for in-PET grid #           1
 GIGC_Chunk_Run: Received new grid IM, JM, LM =          15           9
          49
 =================================================
 W R F - G C   T I M E R S
    Domain           1 (Units: s)
 =================================================
  => Coupler Component                       4.822
   -- Physics & Parameterization             1.238
   -- Diagnostics Out                        0.000
  => GEOS-Chem Column                      282.275
  ===> Total Chemistry                     287.097
  => WRF                                  2990.860
  ===> Total WRF-GC                       3277.957
 max optd  8.2821992E+34
 max taucldi  0.1840902    
 max taucldw  3.4200941E-05
 Switching is not necessary as we are already
 in the right domain!
 GIGC_Chunk_Run: Running for in-PET grid #           1
 GIGC_Chunk_Run: Received new grid IM, JM, LM =          15           9
          49
 =================================================
 W R F - G C   T I M E R S
    Domain           1 (Units: s)
 =================================================
  => Coupler Component                       4.863
   -- Physics & Parameterization             1.247
   -- Diagnostics Out                        0.000
  => GEOS-Chem Column                      283.305
  ===> Total Chemistry                     288.168
  => WRF                                  3009.434
  ===> Total WRF-GC                       3297.602
 max optd  8.2821992E+34
 max taucldi  0.1668925    
 max taucldw  3.4184428E-05
 Switching is not necessary as we are already
 in the right domain!
 GIGC_Chunk_Run: Running for in-PET grid #           1
 GIGC_Chunk_Run: Received new grid IM, JM, LM =          15           9
          49
 =================================================
 W R F - G C   T I M E R S
    Domain           1 (Units: s)
 =================================================
  => Coupler Component                       4.897
   -- Physics & Parameterization             1.256
   -- Diagnostics Out                        0.000
  => GEOS-Chem Column                      284.352
  ===> Total Chemistry                     289.249
  => WRF                                  3028.138
  ===> Total WRF-GC                       3317.387
 max optd  8.2821992E+34
 max taucldi  0.1601834    
 max taucldw  3.4092172E-05
 Switching is not necessary as we are already
 in the right domain!
 GIGC_Chunk_Run: Running for in-PET grid #           1
 GIGC_Chunk_Run: Received new grid IM, JM, LM =          15           9
          49
 =================================================
 W R F - G C   T I M E R S
    Domain           1 (Units: s)
 =================================================
  => Coupler Component                       4.931
   -- Physics & Parameterization             1.265
   -- Diagnostics Out                        0.000
  => GEOS-Chem Column                      285.403
  ===> Total Chemistry                     290.334
  => WRF                                  3047.064
  ===> Total WRF-GC                       3337.398
 max optd  8.2821992E+34
 max taucldi  0.1600782    
 max taucldw  3.3916342E-05
 Switching is not necessary as we are already
 in the right domain!
 GIGC_Chunk_Run: Running for in-PET grid #           1
 GIGC_Chunk_Run: Received new grid IM, JM, LM =          15           9
          49
 =================================================
 W R F - G C   T I M E R S
    Domain           1 (Units: s)
 =================================================
  => Coupler Component                       4.966
   -- Physics & Parameterization             1.274
   -- Diagnostics Out                        0.000
  => GEOS-Chem Column                      286.443
  ===> Total Chemistry                     291.409
  => WRF                                  3065.865
  ===> Total WRF-GC                       3357.273
 max optd  8.2821992E+34
 max taucldi  0.1552818    
 max taucldw  3.3902234E-05
 Switching is not necessary as we are already
 in the right domain!
 GIGC_Chunk_Run: Running for in-PET grid #           1
 GIGC_Chunk_Run: Received new grid IM, JM, LM =          15           9
          49
 =================================================
 W R F - G C   T I M E R S
    Domain           1 (Units: s)
 =================================================
  => Coupler Component                       4.997
   -- Physics & Parameterization             1.283
   -- Diagnostics Out                        0.000
  => GEOS-Chem Column                      287.487
  ===> Total Chemistry                     292.484
  => WRF                                  3084.643
  ===> Total WRF-GC                       3377.127
d01 2018-01-01_12:00:00 wrf: SUCCESS COMPLETE WRF
