taskid: 2693 hostname: ip-172-31-9-38
Quilting with   1 groups of   0 I/O tasks.
 Ntasks in X           64 , ntasks in Y           72
--- WARNING: traj_opt is zero, but num_traj is not zero; setting num_traj to zero.
--- NOTE: sst_update is 0, setting io_form_auxinput4 = 0 and auxinput4_interval = 0 for all domains
--- NOTE: grid_fdda is 0 for domain      1, setting gfdda interval and ending time to 0 for that domain.
--- NOTE: both grid_sfdda and pxlsm_soil_nudge are 0 for domain      1, setting sgfdda interval and ending time to 0 for that domain.
--- NOTE: obs_nudge_opt is 0 for domain      1, setting obs nudging interval and ending time to 0 for that domain.
--- NOTE: bl_pbl_physics /= 4, implies mfshconv must be 0, resetting
Need MYNN PBL for icloud_bl = 1, resetting to 0
*************************************
No physics suite selected.
Physics options will be used directly from the namelist.
*************************************
--- NOTE: RRTMG radiation is in use, setting:  levsiz=59, alevsiz=12, no_src_types=6
--- NOTE: num_soil_layers has been set to      4
WRF V3.9.1.1 MODEL
 *************************************
 Parent domain
 ids,ide,jds,jde            1         950           1         650
 ims,ime,jms,jme           69          97         373         395
 ips,ipe,jps,jpe           76          90         380         388
 *************************************
DYNAMICS OPTION: Eulerian Mass Coordinate
   alloc_space_field: domain            1 ,              203623800  bytes allocated
  med_initialdata_input: calling input_input
Max map factor in domain 1 =  1.40. Scale the dt in the model accordingly.
INPUT LandUse = "USGS"
 LANDUSE TYPE = "USGS" FOUND          33  CATEGORIES           2  SEASONS WATER CATEGORY =           16  SNOW CATEGORY =           24
INITIALIZE THREE Noah LSM RELATED TABLES
*****************************************************************
  __          _______  ______       _____  _____ _    _ _____
  \ \        / /  __ \|  ____|     / ____|/ ____| |  | |  __ \
   \ \  /\  / /| |__) | |__ ______| |  __| |    | |__| | |__) |
    \ \/  \/ / |  _  /|  __|______| | |_ | |    |  __  |  ___/
     \  /\  /  | | \ \| |         | |__| | |____| |  | | |
      \/  \/   |_|  \_\_|          \_____|\_____|_|  |_|_|
*****************************************************************
         WRF-GC MODEL, VERSION 1811.11 - WRF BINDINGS
 For errors, suggestions & feedback email linhaipeng@pku.edu.cn
*****************************************************************
    This is domain            1
 ### GIGC_Stateful_Mod: Root CPU, after READ_INPUT_FILE
  Linoz Data:  O3 climatology :                  z*=10, 12, ..., 58                             2.700E-08 1.083E-05
  Linoz Data:  Temperature climatology :         z*=10, 12, ..., 58                             1.859E+02 2.904E+02
  Linoz Data:  Column O3 above box climalology : z*=10, 12, ..., 58                             7.538E-02 3.770E+02
  Linoz Data:  P-L O3 climatology (mr/s):        z*=10, 12, ..., 58                            -1.590E-10 2.835E-11
  Linoz Data:  d(P-L)/dO3 (1/s) :                z*=10, 12, ..., 58                            -8.386E-04 7.556E-09
  Linoz Data:  d(P-L)/dT (mr/K) :                z*=10, 12, ..., 58                            -5.742E-12 4.615E-14
  Linoz Data:  d(P-L)/d(column O3) (mr/DU) :     z*=10, 12, ..., 58                            -1.921E-12 5.038E-10
 ### GIGC_Stateful_Mod: Root CPU, after LINOZ_READ
 %%%%%%%%% GIGC IN-PET GRID SWITCHING HACKS %%%%%%%%%
     (Not very) Proudly brought to you by hplin      
 Some debug information:
 ID:           1
 IM, JM, LM:          15           9          49  will be set as PAR
 Allocs: CMN T GC F
 RC at entry-point:           0
 %%%%%%%%%%%%%%%%%%%%%%%%%%%%%%%%%%%%%%%%%%%%%%%%%%%%
 No need to switch HcoState for ID           1
 Exit RC:            0
 %%%%%%%%%    FINISHED GIGC_Switch_Dims    %%%%%%%%%
 GIGC_Chunk_Init: Received new grid IM, JM, LM =          15           9
          49
     ### GIGC_INIT_SIMULATION: after Input_Opt% setups
     ### GIGC_INIT_SIMULATION: after GC_Init_All
     ### GIGC_INIT_SIMULATION: after GC_Init_Extra
     ### GIGC_INIT_SIMULATION: after INIT_FJX
 # GIGC_CHUNK_MOD: after SV save, ID =           1
 WRFGC chemics_init: Following information regarding Input_Opt% (for all doms)
 After domain           1
 HPC:  T
 LPRT:  F
 DoConv:  T
 DoDryDep:  T
 DoEmis:  T
 DoChem:  T
 DoTurb:  T
 DoWetDep:  T

 tropopause_init: DONE intialized domain            1

 mediation_integrate: med_read_wrf_chem_emissions: Open file wrfchemi_00z_d01
 HOURLY EMISSIONS UPDATE TIME        0.0       0.0
mediation_integrate: med_read_wrf_chem_emissions: Read emissions for time 2018-01-01_00:00:00
open_aux_u : error opening wrffirechemi_d01_2018-01-01_00:00:00 for reading. 100
open_aux_u : error opening wrfchemi_gocart_bg_d01 for reading. 100
d01 2018-01-01_00:00:00 Input data processed for aux input   8 for domain   1
open_aux_u : error opening wrfchemv_d01 for reading. 100
 Tile Strategy is not specified. Assuming 1D-Y
WRF TILE   1 IS     76 IE     90 JS    380 JE    388
WRF NUMBER OF TILES =   1
 max optd  3.1803609E+35
 max taucldi  0.0000000E+00
 max taucldw  0.0000000E+00
 =================================================
 W R F - G C   T I M E R S
    Domain           1 (Units: s)
 =================================================
  => Coupler Component                       0.027
   -- Physics & Parameterization             0.001
   -- Diagnostics Out                        0.000
  => GEOS-Chem Column                        0.000
  ===> Total Chemistry                       0.027
  => WRF                                     0.000
  ===> Total WRF-GC                          0.027
 max optd  3.1803609E+35
 max taucldi  1.0000007E-14
 max taucldw  1.0000007E-14
 %%%%%%%%% GIGC IN-PET GRID SWITCHING HACKS %%%%%%%%%
     (Not very) Proudly brought to you by hplin      
 Some debug information:
 ID:           1
 IM, JM, LM:          15           9          49  will be set as PAR
 Allocs: CMN T GC T
 RC at entry-point:           0
 %%%%%%%%%%%%%%%%%%%%%%%%%%%%%%%%%%%%%%%%%%%%%%%%%%%%
 No need to switch HcoState for ID           1
 Debug HcoState nSpc, NX, NY, NZ         163          15           9          49
 Exit RC:            0
 %%%%%%%%%    FINISHED GIGC_Switch_Dims    %%%%%%%%%
 GIGC_Chunk_Run: Running for in-PET grid #           1
 GIGC_Chunk_Run: Received new grid IM, JM, LM =          15           9
          49
HEMCO: Opening /fsx/HEMCO/BIOFUEL/v2014-07/biofuel.geos.4x5.nc
HEMCO: Opening /fsx/HEMCO/BROMINE/v2015-02/Bromocarb_Liang2010.nc
HEMCO: Opening /fsx/HEMCO/ACET/v2014-07/ACET_seawater.generic.1x1.nc
HEMCO: Opening /fsx/HEMCO/SOILNOX/v2014-07/DepReservoirDefault.nc
HEMCO: Opening /fsx/HEMCO/SOILNOX/v2014-07/soilNOx.landtype.generic.025x025.1L.nc
HEMCO: Opening /fsx/HEMCO/SOILNOX/v2014-07/soilNOx.climate.generic.05x05.nc
HEMCO: Opening /fsx/HEMCO/DUST_DEAD/v2014-07/dst_tibds.geos.4x5.nc
HEMCO: Opening /fsx/HEMCO/DUST_DEAD/v2014-07/GOCART_src_fn.geos.4x5.nc
HEMCO: Opening /fsx/HEMCO/MEGAN/v2018-05/MEGAN2.1_EF.geos.025x03125.nc
HEMCO: Opening /fsx/HEMCO/MEGAN/v2017-07/CLM4_PFT.geos.025x03125.nc
HEMCO: Opening /fsx/HEMCO/TIMEZONES/v2015-02/timezones_voronoi_1x1.nc
HEMCO: Opening /fsx/HEMCO/STRAT/v2015-01/Bry/GEOSCCM_Bry.200701.day.nc
HEMCO: Opening /fsx/HEMCO/STRAT/v2015-01/Bry/GEOSCCM_Bry.200701.night.nc
HEMCO: Opening /fsx/HEMCO/OMOC/v2018-01/OMOC.DJF.01x01.nc
HEMCO: Opening /fsx/HEMCO/OMOC/v2018-01/OMOC.MAM.01x01.nc
HEMCO: Opening /fsx/HEMCO/OMOC/v2018-01/OMOC.JJA.01x01.nc
HEMCO: Opening /fsx/HEMCO/OMOC/v2018-01/OMOC.SON.01x01.nc
HEMCO: Opening /fsx/HEMCO/AnnualScalar/v2014-07/AnnualScalar.geos.1x1.nc
HEMCO: Opening /fsx/HEMCO/EDGARv42/v2015-02/NO/EDGAR_hourly_NOxScal.nc
HEMCO: Opening /fsx/HEMCO/MASKS/v2018-09/EMEP_mask.geos.1x1.20151222.nc
HEMCO: Opening /fsx/HEMCO/MASKS/v2018-09/Canada_mask.geos.1x1.nc
HEMCO: Opening /fsx/HEMCO/MASKS/v2018-09/SE_Asia_mask.generic.1x1.nc
HEMCO: Opening /fsx/HEMCO/MASKS/v2018-09/MIX_Asia_mask.generic.025x025.nc
HEMCO: Opening /fsx/HEMCO/MASKS/v2018-09/CONUS_Mask.01x01.nc
HEMCO: Opening /fsx/HEMCO/MASKS/v2018-09/AF_LANDMASK.geos.05x0666.global.nc
HEMCO: Opening /fsx/HEMCO/MASKS/v2018-09/China_mask.generic.1x1.nc
HEMCO: Opening /fsx/HEMCO/MASKS/v2018-09/India_mask.generic.1x1.nc
HEMCO: Opening /fsx/HEMCO/AnnualScalar/v2014-07/AnnualScalar.geos.1x1.nc
HEMCO: Opening /fsx/HEMCO/NH3/v2014-07/NH3_geos.4x5.nc
HEMCO: Opening /fsx/HEMCO/NH3/v2018-04/NH3_Arctic_seabirds.nc
HEMCO: Opening /fsx/HEMCO/CEDS/v2018-08/2014/NO-em-anthro_CMIP_CEDS_2014.nc
HEMCO: Opening /fsx/HEMCO/CEDS/v2018-08/2014/CO-em-anthro_CMIP_CEDS_2014.nc
HEMCO: Opening /fsx/HEMCO/CEDS/v2018-08/2014/SO2-em-anthro_CMIP_CEDS_2014.nc
HEMCO: Opening /fsx/HEMCO/CEDS/v2018-08/2014/NH3-em-anthro_CMIP_CEDS_2014.nc
HEMCO: Opening /fsx/HEMCO/CEDS/v2018-08/2014/BC-em-anthro_CMIP_CEDS_2014.nc
HEMCO: Opening /fsx/HEMCO/CEDS/v2018-08/2014/OC-em-anthro_CMIP_CEDS_2014.nc
HEMCO: Opening /fsx/HEMCO/CEDS/v2018-08/2014/EOH-em-anthro_CMIP_CEDS_2014.nc
HEMCO: Opening /fsx/HEMCO/CEDS/v2018-08/2014/C2H6-em-anthro_CMIP_CEDS_2014.nc
HEMCO: Opening /fsx/HEMCO/CEDS/v2018-08/2014/C3H8-em-anthro_CMIP_CEDS_2014.nc
HEMCO: Opening /fsx/HEMCO/CEDS/v2018-08/2014/ALK4_butanes-em-anthro_CMIP_CEDS_2014.nc
HEMCO: Opening /fsx/HEMCO/CEDS/v2018-08/2014/ALK4_pentanes-em-anthro_CMIP_CEDS_2014.nc
HEMCO: Opening /fsx/HEMCO/CEDS/v2018-08/2014/ALK4_hexanes-em-anthro_CMIP_CEDS_2014.nc
HEMCO: Opening /fsx/HEMCO/CEDS/v2018-08/2014/PRPE-em-anthro_CMIP_CEDS_2014.nc
HEMCO: Opening /fsx/HEMCO/CEDS/v2018-08/2014/BENZ-em-anthro_CMIP_CEDS_2014.nc
HEMCO: Opening /fsx/HEMCO/CEDS/v2018-08/2014/TOLU-em-anthro_CMIP_CEDS_2014.nc
HEMCO: Opening /fsx/HEMCO/CEDS/v2018-08/2014/XYLE-em-anthro_CMIP_CEDS_2014.nc
HEMCO: Opening /fsx/HEMCO/CEDS/v2018-08/2014/CH2O-em-anthro_CMIP_CEDS_2014.nc
HEMCO: Opening /fsx/HEMCO/CEDS/v2018-08/2014/ALD2-em-anthro_CMIP_CEDS_2014.nc
HEMCO: Opening /fsx/HEMCO/CEDS/v2018-08/2014/MEK-em-anthro_CMIP_CEDS_2014.nc
HEMCO: Opening /fsx/HEMCO/CEDS/v2018-08/2014/HCOOH-em-anthro_CMIP_CEDS_2014.nc
HEMCO: Opening /fsx/HEMCO/C2H6_2010/v2017-05/C2H6_global_anth_biof.201001.nc
HEMCO: Opening /fsx/HEMCO/NEI2011/v2017-02-MM/01/NEI11_0.1x0.1_201101_monmean.nc
HEMCO: Opening /fsx/HEMCO/NEI2011/v2017-02-MM/01/NEI11_0.1x0.1_201101_monmean_egu.nc
HEMCO: Opening /fsx/HEMCO/NEI2011/v2017-02-MM/01/NEI11_0.1x0.1_201101_monmean_egupk.nc
HEMCO: Opening /fsx/HEMCO/NEI2011/v2017-02-MM/01/NEI11_0.1x0.1_201101_monmean_oilgas.nc
HEMCO: Opening /fsx/HEMCO/NEI2011/v2017-02-MM/01/NEI11_0.1x0.1_201101_monmean_othpt.nc
HEMCO: Opening /fsx/HEMCO/NEI2011/v2017-02-MM/01/NEI11_0.1x0.1_201101_monmean_ptnonipm.nc
HEMCO: Opening /fsx/HEMCO/IODINE/v2017-09/CH3I_monthly_emissions_Ordonez_2012_COARDS.nc
HEMCO: Opening /fsx/HEMCO/IODINE/v2017-09/CH2I2_monthly_emissions_Ordonez_2012_COARDS.nc
HEMCO: Opening /fsx/HEMCO/IODINE/v2017-09/CH2ICl_monthly_emissions_Ordonez_2012_COARDS.nc
HEMCO: Opening /fsx/HEMCO/IODINE/v2017-09/CH2IBr_monthly_emissions_Ordonez_2012_COARDS.nc
HEMCO: Opening /fsx/HEMCO/CEDS/v2018-08/2014/CO-em-anthro_CMIP_CEDS_2014.nc
HEMCO: Opening /fsx/HEMCO/CEDS/v2018-08/2014/SO2-em-anthro_CMIP_CEDS_2014.nc
HEMCO: Opening /fsx/HEMCO/CEDS/v2018-08/2014/NH3-em-anthro_CMIP_CEDS_2014.nc
HEMCO: Opening /fsx/HEMCO/CEDS/v2018-08/2014/BC-em-anthro_CMIP_CEDS_2014.nc
HEMCO: Opening /fsx/HEMCO/CEDS/v2018-08/2014/OC-em-anthro_CMIP_CEDS_2014.nc
HEMCO: Opening /fsx/HEMCO/CEDS/v2018-08/2014/EOH-em-anthro_CMIP_CEDS_2014.nc
HEMCO: Opening /fsx/HEMCO/CEDS/v2018-08/2014/C2H6-em-anthro_CMIP_CEDS_2014.nc
HEMCO: Opening /fsx/HEMCO/CEDS/v2018-08/2014/C3H8-em-anthro_CMIP_CEDS_2014.nc
HEMCO: Opening /fsx/HEMCO/CEDS/v2018-08/2014/ALK4_butanes-em-anthro_CMIP_CEDS_2014.nc
HEMCO: Opening /fsx/HEMCO/CEDS/v2018-08/2014/ALK4_pentanes-em-anthro_CMIP_CEDS_2014.nc
HEMCO: Opening /fsx/HEMCO/CEDS/v2018-08/2014/ALK4_hexanes-em-anthro_CMIP_CEDS_2014.nc
HEMCO: Opening /fsx/HEMCO/CEDS/v2018-08/2014/PRPE-em-anthro_CMIP_CEDS_2014.nc
HEMCO: Opening /fsx/HEMCO/CEDS/v2018-08/2014/BENZ-em-anthro_CMIP_CEDS_2014.nc
HEMCO: Opening /fsx/HEMCO/CEDS/v2018-08/2014/TOLU-em-anthro_CMIP_CEDS_2014.nc
HEMCO: Opening /fsx/HEMCO/CEDS/v2018-08/2014/XYLE-em-anthro_CMIP_CEDS_2014.nc
HEMCO: Opening /fsx/HEMCO/CEDS/v2018-08/2014/CH2O-em-anthro_CMIP_CEDS_2014.nc
HEMCO: Opening /fsx/HEMCO/CEDS/v2018-08/2014/ALD2-em-anthro_CMIP_CEDS_2014.nc
HEMCO: Opening /fsx/HEMCO/CEDS/v2018-08/2014/MEK-em-anthro_CMIP_CEDS_2014.nc
HEMCO: Opening /fsx/HEMCO/CEDS/v2018-08/2014/HCOOH-em-anthro_CMIP_CEDS_2014.nc
HEMCO: Opening /fsx/HEMCO/CEDS/v2018-08/2014/NO-em-anthro_CMIP_CEDS_2014.nc
HEMCO: Opening /fsx/HEMCO/AEIC/v2015-01/AEIC.47L.gen.1x1.nc
HEMCO: Opening /fsx/HEMCO/ALD2/v2017-03/resp.geos.2x25.nc
HEMCO: Opening /fsx/HEMCO/DMS/v2015-07/DMS_lana.geos.1x1.nc
HEMCO: Opening /fsx/HEMCO/ALD2/v2017-03/ALD2_seawater.geos.2x25.nc
HEMCO: Opening /fsx/HEMCO/DUST_DEAD/v2014-07/dst_tvbds.geos.4x5.nc
HEMCO: Opening /fsx/HEMCO/DUST_DEAD/v2018-04/PM25FINE_ECLIPSE_2015.geos.2x25.nc
HEMCO: Opening /fsx/HEMCO/SOA/v2014-07/NVOC.geos.1x1.nc
HEMCO: Opening /fsx/HEMCO/GFED4/v2015-10/2016/GFED4_gen.025x025.201601.nc
HEMCO: Opening /fsx/HEMCO/UVALBEDO/v2015-03/uvalbedo.geos.2x25.nc
HEMCO: Opening /fsx/HEMCO/GMI/v2015-02/gmi.clim.ACET.geos5.2x25.nc
HEMCO: Opening /fsx/HEMCO/GMI/v2015-02/gmi.clim.ACTA.geos5.2x25.nc
HEMCO: Opening /fsx/HEMCO/GMI/v2015-02/gmi.clim.ALD2.geos5.2x25.nc
HEMCO: Opening /fsx/HEMCO/GMI/v2015-02/gmi.clim.ALK4.geos5.2x25.nc
HEMCO: Opening /fsx/HEMCO/GMI/v2015-02/gmi.clim.C2H6.geos5.2x25.nc
HEMCO: Opening /fsx/HEMCO/GMI/v2015-02/gmi.clim.C3H8.geos5.2x25.nc
HEMCO: Opening /fsx/HEMCO/GMI/v2015-02/gmi.clim.CCl4.geos5.2x25.nc
HEMCO: Opening /fsx/HEMCO/GMI/v2015-02/gmi.clim.CF2Cl2.geos5.2x25.nc
HEMCO: Opening /fsx/HEMCO/GMI/v2015-02/gmi.clim.CF2ClBr.geos5.2x25.nc
HEMCO: Opening /fsx/HEMCO/GMI/v2015-02/gmi.clim.CFC113.geos5.2x25.nc
HEMCO: Opening /fsx/HEMCO/GMI/v2015-02/gmi.clim.CFC114.geos5.2x25.nc
HEMCO: Opening /fsx/HEMCO/GMI/v2015-02/gmi.clim.CFC115.geos5.2x25.nc
HEMCO: Opening /fsx/HEMCO/GMI/v2015-02/gmi.clim.CFCl3.geos5.2x25.nc
HEMCO: Opening /fsx/HEMCO/GMI/v2015-02/gmi.clim.CH2O.geos5.2x25.nc
HEMCO: Opening /fsx/HEMCO/GMI/v2015-02/gmi.clim.CH3CCl3.geos5.2x25.nc
HEMCO: Opening /fsx/HEMCO/GMI/v2015-02/gmi.clim.CH3Cl.geos5.2x25.nc
HEMCO: Opening /fsx/HEMCO/GMI/v2015-02/gmi.clim.CH4.geos5.2x25.nc
HEMCO: Opening /fsx/HEMCO/GMI/v2015-02/gmi.clim.CO.geos5.2x25.nc
HEMCO: Opening /fsx/HEMCO/GMI/v2015-02/gmi.clim.Cl.geos5.2x25.nc
HEMCO: Opening /fsx/HEMCO/GMI/v2015-02/gmi.clim.Cl2.geos5.2x25.nc
HEMCO: Opening /fsx/HEMCO/GMI/v2015-02/gmi.clim.Cl2O2.geos5.2x25.nc
HEMCO: Opening /fsx/HEMCO/GMI/v2015-02/gmi.clim.ClO.geos5.2x25.nc
HEMCO: Opening /fsx/HEMCO/GMI/v2015-02/gmi.clim.EOH.geos5.2x25.nc
HEMCO: Opening /fsx/HEMCO/GMI/v2015-02/gmi.clim.GLYC.geos5.2x25.nc
HEMCO: Opening /fsx/HEMCO/GMI/v2015-02/gmi.clim.GLYX.geos5.2x25.nc
HEMCO: Opening /fsx/HEMCO/GMI/v2015-02/gmi.clim.H2402.geos5.2x25.nc
HEMCO: Opening /fsx/HEMCO/GMI/v2015-02/gmi.clim.H2O.geos5.2x25.nc
HEMCO: Opening /fsx/HEMCO/GMI/v2015-02/gmi.clim.H2O2.geos5.2x25.nc
HEMCO: Opening /fsx/HEMCO/GMI/v2015-02/gmi.clim.HAC.geos5.2x25.nc
HEMCO: Opening /fsx/HEMCO/GMI/v2015-02/gmi.clim.HCFC141b.geos5.2x25.nc
HEMCO: Opening /fsx/HEMCO/GMI/v2015-02/gmi.clim.HCFC142b.geos5.2x25.nc
HEMCO: Opening /fsx/HEMCO/GMI/v2015-02/gmi.clim.HCFC22.geos5.2x25.nc
HEMCO: Opening /fsx/HEMCO/GMI/v2015-02/gmi.clim.HCOOH.geos5.2x25.20170108.nc
HEMCO: Opening /fsx/HEMCO/GMI/v2015-02/gmi.clim.HCl.geos5.2x25.nc
HEMCO: Opening /fsx/HEMCO/GMI/v2015-02/gmi.clim.HNO2.geos5.2x25.nc
HEMCO: Opening /fsx/HEMCO/GMI/v2015-02/gmi.clim.HNO3.geos5.2x25.nc
HEMCO: Opening /fsx/HEMCO/GMI/v2015-02/gmi.clim.HNO4.geos5.2x25.nc
HEMCO: Opening /fsx/HEMCO/GMI/v2015-02/gmi.clim.HOCl.geos5.2x25.nc
HEMCO: Opening /fsx/HEMCO/GMI/v2015-02/gmi.clim.ISN1.geos5.2x25.nc
HEMCO: Opening /fsx/HEMCO/GMI/v2015-02/gmi.clim.ISOP.geos5.2x25.nc
HEMCO: Opening /fsx/HEMCO/GMI/v2015-02/gmi.clim.MACR.geos5.2x25.nc
HEMCO: Opening /fsx/HEMCO/GMI/v2015-02/gmi.clim.MAP.geos5.2x25.nc
HEMCO: Opening /fsx/HEMCO/GMI/v2015-02/gmi.clim.MEK.geos5.2x25.nc
HEMCO: Opening /fsx/HEMCO/GMI/v2015-02/gmi.clim.MGLY.geos5.2x25.nc
HEMCO: Opening /fsx/HEMCO/GMI/v2015-02/gmi.clim.MP.geos5.2x25.nc
HEMCO: Opening /fsx/HEMCO/GMI/v2015-02/gmi.clim.MVK.geos5.2x25.nc
HEMCO: Opening /fsx/HEMCO/GMI/v2015-02/gmi.clim.N2O.geos5.2x25.nc
HEMCO: Opening /fsx/HEMCO/GMI/v2015-02/gmi.clim.N2O5.geos5.2x25.nc
HEMCO: Opening /fsx/HEMCO/GMI/v2015-02/gmi.clim.NO.geos5.2x25.nc
HEMCO: Opening /fsx/HEMCO/GMI/v2015-02/gmi.clim.NO2.geos5.2x25.nc
HEMCO: Opening /fsx/HEMCO/GMI/v2015-02/gmi.clim.NO3.geos5.2x25.nc
HEMCO: Opening /fsx/HEMCO/GMI/v2015-02/gmi.clim.O3.geos5.2x25.nc
HEMCO: Opening /fsx/HEMCO/GMI/v2015-02/gmi.clim.OClO.geos5.2x25.nc
HEMCO: Opening /fsx/HEMCO/GMI/v2015-02/gmi.clim.PAN.geos5.2x25.nc
HEMCO: Opening /fsx/HEMCO/GMI/v2015-02/gmi.clim.NPMN.geos5.2x25.nc
HEMCO: Opening /fsx/HEMCO/GMI/v2015-02/gmi.clim.IPMN.geos5.2x25.nc
HEMCO: Opening /fsx/HEMCO/GMI/v2015-02/gmi.clim.PPN.geos5.2x25.nc
HEMCO: Opening /fsx/HEMCO/GMI/v2015-02/gmi.clim.PRPE.geos5.2x25.nc
HEMCO: Opening /fsx/HEMCO/GMI/v2015-02/gmi.clim.R4N2.geos5.2x25.nc
HEMCO: Opening /fsx/HEMCO/GMI/v2015-02/gmi.clim.RCHO.geos5.2x25.nc
HEMCO: Opening /fsx/HEMCO/GMI/v2015-02/gmi.clim.RIPA.geos5.2x25.nc
HEMCO: Opening /fsx/HEMCO/GMI/v2015-02/gmi.clim.RIPB.geos5.2x25.nc
HEMCO: Opening /fsx/HEMCO/GMI/v2015-02/gmi.clim.RIPD.geos5.2x25.nc
HEMCO: Opening /fsx/HEMCO/GMI/v2015-02/gmi.clim.OH.geos5.2x25.nc
HEMCO: Opening /fsx/HEMCO/NOAA_GMD/v2018-01/monthly.gridded.surface.methane.1979-2020.1x1.nc
HEMCO: Opening /fsx/HEMCO/GEIA/v2014-07/GEIA_monthscal.generic.1x1.nc
HEMCO: Opening /fsx/HEMCO/EMEP/v2015-03/EMEP.Seasonal.geos.1x1.nc
HEMCO: Opening /fsx/HEMCO/BROMINE/v2015-02/BromoCarb_Season.nc
HEMCO: Opening /fsx/HEMCO/EDGARv43/v2016-11/EDGAR_v43.Seasonal.1x1.nc
HEMCO: Opening /fsx/HEMCO/NEI2005/v2014-09/scaling/NEI99.dow.geos.1x1.nc
HEMCO: Opening /fsx/HEMCO/VOLCANO/v2015-02/2009/volc_so2_gen.1x1.47L.200901.nc
HEMCO: Opening /fsx/HEMCO/SOILNOX/v2014-07/soilNOx.fert_res.generic.05x05.nc
 vdinti: pbl height will be limited to bottom           25  model levels. top is
     431.250100000000       hpa
 =================================================
 W R F - G C   T I M E R S
    Domain           1 (Units: s)
 =================================================
  => Coupler Component                       0.053
   -- Physics & Parameterization             0.010
   -- Diagnostics Out                        0.000
  => GEOS-Chem Column                      154.101
  ===> Total Chemistry                     154.154
  => WRF                                    17.318
  ===> Total WRF-GC                        171.472
 max optd  3.1803609E+35
 max taucldi  8.0238884E-08
 max taucldw  3.1076732E-07
 Switching is not necessary as we are already
 in the right domain!
 GIGC_Chunk_Run: Running for in-PET grid #           1
 GIGC_Chunk_Run: Received new grid IM, JM, LM =          15           9
          49
 =================================================
 W R F - G C   T I M E R S
    Domain           1 (Units: s)
 =================================================
  => Coupler Component                       0.080
   -- Physics & Parameterization             0.019
   -- Diagnostics Out                        0.000
  => GEOS-Chem Column                      156.778
  ===> Total Chemistry                     156.858
  => WRF                                    36.819
  ===> Total WRF-GC                        193.677
 max optd  3.1803609E+35
 max taucldi  1.4216383E-07
 max taucldw  5.1239573E-07
 Switching is not necessary as we are already
 in the right domain!
 GIGC_Chunk_Run: Running for in-PET grid #           1
 GIGC_Chunk_Run: Received new grid IM, JM, LM =          15           9
          49
 =================================================
 W R F - G C   T I M E R S
    Domain           1 (Units: s)
 =================================================
  => Coupler Component                       0.109
   -- Physics & Parameterization             0.029
   -- Diagnostics Out                        0.000
  => GEOS-Chem Column                      158.310
  ===> Total Chemistry                     158.419
  => WRF                                    55.998
  ===> Total WRF-GC                        214.417
 max optd  3.1803609E+35
 max taucldi  2.2411642E-07
 max taucldw  9.3513654E-07
 Switching is not necessary as we are already
 in the right domain!
 GIGC_Chunk_Run: Running for in-PET grid #           1
 GIGC_Chunk_Run: Received new grid IM, JM, LM =          15           9
          49
 =================================================
 W R F - G C   T I M E R S
    Domain           1 (Units: s)
 =================================================
  => Coupler Component                       0.147
   -- Physics & Parameterization             0.038
   -- Diagnostics Out                        0.000
  => GEOS-Chem Column                      159.609
  ===> Total Chemistry                     159.756
  => WRF                                    74.564
  ===> Total WRF-GC                        234.319
 max optd  3.1803609E+35
 max taucldi  5.1776607E-07
 max taucldw  1.3582088E-06
 Switching is not necessary as we are already
 in the right domain!
 GIGC_Chunk_Run: Running for in-PET grid #           1
 GIGC_Chunk_Run: Received new grid IM, JM, LM =          15           9
          49
 =================================================
 W R F - G C   T I M E R S
    Domain           1 (Units: s)
 =================================================
  => Coupler Component                       0.179
   -- Physics & Parameterization             0.048
   -- Diagnostics Out                        0.000
  => GEOS-Chem Column                      160.869
  ===> Total Chemistry                     161.048
  => WRF                                    92.891
  ===> Total WRF-GC                        253.939
 max optd  3.1803609E+35
 max taucldi  3.6994725E-02
 max taucldw  1.8146261E-06
 Switching is not necessary as we are already
 in the right domain!
 GIGC_Chunk_Run: Running for in-PET grid #           1
 GIGC_Chunk_Run: Received new grid IM, JM, LM =          15           9
          49
 =================================================
 W R F - G C   T I M E R S
    Domain           1 (Units: s)
 =================================================
  => Coupler Component                       0.213
   -- Physics & Parameterization             0.057
   -- Diagnostics Out                        0.000
  => GEOS-Chem Column                      162.055
  ===> Total Chemistry                     162.268
  => WRF                                   111.139
  ===> Total WRF-GC                        273.407
 max optd  3.1803609E+35
 max taucldi  5.3658370E-02
 max taucldw  2.2905203E-06
 Switching is not necessary as we are already
 in the right domain!
 GIGC_Chunk_Run: Running for in-PET grid #           1
 GIGC_Chunk_Run: Received new grid IM, JM, LM =          15           9
          49
 =================================================
 W R F - G C   T I M E R S
    Domain           1 (Units: s)
 =================================================
  => Coupler Component                       0.255
   -- Physics & Parameterization             0.066
   -- Diagnostics Out                        0.000
  => GEOS-Chem Column                      163.244
  ===> Total Chemistry                     163.499
  => WRF                                   129.455
  ===> Total WRF-GC                        292.954
 max optd  3.1803609E+35
 max taucldi  5.8576778E-02
 max taucldw  2.7803094E-06
 Switching is not necessary as we are already
 in the right domain!
 GIGC_Chunk_Run: Running for in-PET grid #           1
 GIGC_Chunk_Run: Received new grid IM, JM, LM =          15           9
          49
 =================================================
 W R F - G C   T I M E R S
    Domain           1 (Units: s)
 =================================================
  => Coupler Component                       0.291
   -- Physics & Parameterization             0.075
   -- Diagnostics Out                        0.000
  => GEOS-Chem Column                      164.421
  ===> Total Chemistry                     164.713
  => WRF                                   147.686
  ===> Total WRF-GC                        312.399
 max optd  3.1803609E+35
 max taucldi  4.0647805E-02
 max taucldw  3.2668690E-06
 Switching is not necessary as we are already
 in the right domain!
 GIGC_Chunk_Run: Running for in-PET grid #           1
 GIGC_Chunk_Run: Received new grid IM, JM, LM =          15           9
          49
 =================================================
 W R F - G C   T I M E R S
    Domain           1 (Units: s)
 =================================================
  => Coupler Component                       0.324
   -- Physics & Parameterization             0.085
   -- Diagnostics Out                        0.000
  => GEOS-Chem Column                      165.601
  ===> Total Chemistry                     165.925
  => WRF                                   165.940
  ===> Total WRF-GC                        331.865
 max optd  3.1803609E+35
 max taucldi  5.8794759E-02
 max taucldw  3.7237292E-06
 Switching is not necessary as we are already
 in the right domain!
 GIGC_Chunk_Run: Running for in-PET grid #           1
 GIGC_Chunk_Run: Received new grid IM, JM, LM =          15           9
          49
 =================================================
 W R F - G C   T I M E R S
    Domain           1 (Units: s)
 =================================================
  => Coupler Component                       0.361
   -- Physics & Parameterization             0.094
   -- Diagnostics Out                        0.000
  => GEOS-Chem Column                      166.775
  ===> Total Chemistry                     167.136
  => WRF                                   184.247
  ===> Total WRF-GC                        351.383
 max optd  3.1803609E+35
 max taucldi  7.0322350E-02
 max taucldw  4.1367398E-06
 Switching is not necessary as we are already
 in the right domain!
 GIGC_Chunk_Run: Running for in-PET grid #           1
 GIGC_Chunk_Run: Received new grid IM, JM, LM =          15           9
          49
 =================================================
 W R F - G C   T I M E R S
    Domain           1 (Units: s)
 =================================================
  => Coupler Component                       0.395
   -- Physics & Parameterization             0.104
   -- Diagnostics Out                        0.000
  => GEOS-Chem Column                      167.948
  ===> Total Chemistry                     168.343
  => WRF                                   202.490
  ===> Total WRF-GC                        370.833
 max optd  3.1803609E+35
 max taucldi  0.1003389    
 max taucldw  4.4883418E-06
 Switching is not necessary as we are already
 in the right domain!
 GIGC_Chunk_Run: Running for in-PET grid #           1
 GIGC_Chunk_Run: Received new grid IM, JM, LM =          15           9
          49
 =================================================
 W R F - G C   T I M E R S
    Domain           1 (Units: s)
 =================================================
  => Coupler Component                       0.426
   -- Physics & Parameterization             0.113
   -- Diagnostics Out                        0.000
  => GEOS-Chem Column                      169.104
  ===> Total Chemistry                     169.530
  => WRF                                   220.611
  ===> Total WRF-GC                        390.141
 HOURLY EMISSIONS UPDATE TIME     3600.0       0.0
mediation_integrate: med_read_wrf_chem_emissions: Read emissions for time 2018-01-01_01:00:00
 max optd  3.1803609E+35
 max taucldi  0.1003918    
 max taucldw  4.8432885E-06
 Switching is not necessary as we are already
 in the right domain!
 GIGC_Chunk_Run: Running for in-PET grid #           1
 GIGC_Chunk_Run: Received new grid IM, JM, LM =          15           9
          49
 =================================================
 W R F - G C   T I M E R S
    Domain           1 (Units: s)
 =================================================
  => Coupler Component                       0.459
   -- Physics & Parameterization             0.123
   -- Diagnostics Out                        0.000
  => GEOS-Chem Column                      170.267
  ===> Total Chemistry                     170.727
  => WRF                                   238.829
  ===> Total WRF-GC                        409.555
 max optd  3.1803609E+35
 max taucldi  0.1037737    
 max taucldw  5.2827982E-06
 Switching is not necessary as we are already
 in the right domain!
 GIGC_Chunk_Run: Running for in-PET grid #           1
 GIGC_Chunk_Run: Received new grid IM, JM, LM =          15           9
          49
 =================================================
 W R F - G C   T I M E R S
    Domain           1 (Units: s)
 =================================================
  => Coupler Component                       0.487
   -- Physics & Parameterization             0.133
   -- Diagnostics Out                        0.000
  => GEOS-Chem Column                      171.430
  ===> Total Chemistry                     171.917
  => WRF                                   257.032
  ===> Total WRF-GC                        428.949
 max optd  3.1803609E+35
 max taucldi  9.4257422E-02
 max taucldw  5.7717780E-06
 Switching is not necessary as we are already
 in the right domain!
 GIGC_Chunk_Run: Running for in-PET grid #           1
 GIGC_Chunk_Run: Received new grid IM, JM, LM =          15           9
          49
 =================================================
 W R F - G C   T I M E R S
    Domain           1 (Units: s)
 =================================================
  => Coupler Component                       0.531
   -- Physics & Parameterization             0.142
   -- Diagnostics Out                        0.000
  => GEOS-Chem Column                      172.533
  ===> Total Chemistry                     173.064
  => WRF                                   275.134
  ===> Total WRF-GC                        448.198
 max optd  3.1803609E+35
 max taucldi  8.1857458E-02
 max taucldw  6.1834921E-06
 Switching is not necessary as we are already
 in the right domain!
 GIGC_Chunk_Run: Running for in-PET grid #           1
 GIGC_Chunk_Run: Received new grid IM, JM, LM =          15           9
          49
 =================================================
 W R F - G C   T I M E R S
    Domain           1 (Units: s)
 =================================================
  => Coupler Component                       0.576
   -- Physics & Parameterization             0.151
   -- Diagnostics Out                        0.000
  => GEOS-Chem Column                      173.580
  ===> Total Chemistry                     174.157
  => WRF                                   293.343
  ===> Total WRF-GC                        467.500
 max optd  3.1803609E+35
 max taucldi  8.0524810E-02
 max taucldw  6.4955952E-06
 Switching is not necessary as we are already
 in the right domain!
 GIGC_Chunk_Run: Running for in-PET grid #           1
 GIGC_Chunk_Run: Received new grid IM, JM, LM =          15           9
          49
 =================================================
 W R F - G C   T I M E R S
    Domain           1 (Units: s)
 =================================================
  => Coupler Component                       0.621
   -- Physics & Parameterization             0.161
   -- Diagnostics Out                        0.000
  => GEOS-Chem Column                      174.639
  ===> Total Chemistry                     175.260
  => WRF                                   311.574
  ===> Total WRF-GC                        486.834
 max optd  3.1803609E+35
 max taucldi  8.1924170E-02
 max taucldw  6.6933667E-06
 Switching is not necessary as we are already
 in the right domain!
 GIGC_Chunk_Run: Running for in-PET grid #           1
 GIGC_Chunk_Run: Received new grid IM, JM, LM =          15           9
          49
 =================================================
 W R F - G C   T I M E R S
    Domain           1 (Units: s)
 =================================================
  => Coupler Component                       0.666
   -- Physics & Parameterization             0.170
   -- Diagnostics Out                        0.000
  => GEOS-Chem Column                      175.696
  ===> Total Chemistry                     176.362
  => WRF                                   329.757
  ===> Total WRF-GC                        506.119
 max optd  3.1803609E+35
 max taucldi  8.5181221E-02
 max taucldw  6.9700609E-06
 Switching is not necessary as we are already
 in the right domain!
 GIGC_Chunk_Run: Running for in-PET grid #           1
 GIGC_Chunk_Run: Received new grid IM, JM, LM =          15           9
          49
 =================================================
 W R F - G C   T I M E R S
    Domain           1 (Units: s)
 =================================================
  => Coupler Component                       0.709
   -- Physics & Parameterization             0.179
   -- Diagnostics Out                        0.000
  => GEOS-Chem Column                      176.757
  ===> Total Chemistry                     177.466
  => WRF                                   347.997
  ===> Total WRF-GC                        525.463
 max optd  3.1803609E+35
 max taucldi  9.3116470E-02
 max taucldw  7.2815528E-06
 Switching is not necessary as we are already
 in the right domain!
 GIGC_Chunk_Run: Running for in-PET grid #           1
 GIGC_Chunk_Run: Received new grid IM, JM, LM =          15           9
          49
 =================================================
 W R F - G C   T I M E R S
    Domain           1 (Units: s)
 =================================================
  => Coupler Component                       0.755
   -- Physics & Parameterization             0.189
   -- Diagnostics Out                        0.000
  => GEOS-Chem Column                      177.812
  ===> Total Chemistry                     178.566
  => WRF                                   366.339
  ===> Total WRF-GC                        544.905
 max optd  3.1803609E+35
 max taucldi  0.1016314    
 max taucldw  7.4815734E-06
 Switching is not necessary as we are already
 in the right domain!
 GIGC_Chunk_Run: Running for in-PET grid #           1
 GIGC_Chunk_Run: Received new grid IM, JM, LM =          15           9
          49
 =================================================
 W R F - G C   T I M E R S
    Domain           1 (Units: s)
 =================================================
  => Coupler Component                       0.797
   -- Physics & Parameterization             0.198
   -- Diagnostics Out                        0.000
  => GEOS-Chem Column                      178.876
  ===> Total Chemistry                     179.673
  => WRF                                   384.428
  ===> Total WRF-GC                        564.101
 max optd  3.1803609E+35
 max taucldi  0.1115292    
 max taucldw  7.6320639E-06
 Switching is not necessary as we are already
 in the right domain!
 GIGC_Chunk_Run: Running for in-PET grid #           1
 GIGC_Chunk_Run: Received new grid IM, JM, LM =          15           9
          49
 =================================================
 W R F - G C   T I M E R S
    Domain           1 (Units: s)
 =================================================
  => Coupler Component                       0.839
   -- Physics & Parameterization             0.207
   -- Diagnostics Out                        0.000
  => GEOS-Chem Column                      179.948
  ===> Total Chemistry                     180.787
  => WRF                                   402.595
  ===> Total WRF-GC                        583.383
 max optd  3.1803609E+35
 max taucldi  0.1218585    
 max taucldw  7.7655277E-06
 Switching is not necessary as we are already
 in the right domain!
 GIGC_Chunk_Run: Running for in-PET grid #           1
 GIGC_Chunk_Run: Received new grid IM, JM, LM =          15           9
          49
 =================================================
 W R F - G C   T I M E R S
    Domain           1 (Units: s)
 =================================================
  => Coupler Component                       0.879
   -- Physics & Parameterization             0.217
   -- Diagnostics Out                        0.000
  => GEOS-Chem Column                      181.020
  ===> Total Chemistry                     181.899
  => WRF                                   420.860
  ===> Total WRF-GC                        602.759
 max optd  3.1803609E+35
 max taucldi  0.1423470    
 max taucldw  7.9117654E-06
 Switching is not necessary as we are already
 in the right domain!
 GIGC_Chunk_Run: Running for in-PET grid #           1
 GIGC_Chunk_Run: Received new grid IM, JM, LM =          15           9
          49
 =================================================
 W R F - G C   T I M E R S
    Domain           1 (Units: s)
 =================================================
  => Coupler Component                       0.926
   -- Physics & Parameterization             0.226
   -- Diagnostics Out                        0.000
  => GEOS-Chem Column                      182.057
  ===> Total Chemistry                     182.983
  => WRF                                   439.009
  ===> Total WRF-GC                        621.992
 HOURLY EMISSIONS UPDATE TIME     7200.0       0.0
mediation_integrate: med_read_wrf_chem_emissions: Read emissions for time 2018-01-01_02:00:00
 max optd  3.1803609E+35
 max taucldi  0.1649568    
 max taucldw  8.0814170E-06
 Switching is not necessary as we are already
 in the right domain!
 GIGC_Chunk_Run: Running for in-PET grid #           1
 GIGC_Chunk_Run: Received new grid IM, JM, LM =          15           9
          49
 =================================================
 W R F - G C   T I M E R S
    Domain           1 (Units: s)
 =================================================
  => Coupler Component                       0.967
   -- Physics & Parameterization             0.235
   -- Diagnostics Out                        0.000
  => GEOS-Chem Column                      183.125
  ===> Total Chemistry                     184.092
  => WRF                                   457.233
  ===> Total WRF-GC                        641.325
 max optd  3.1803609E+35
 max taucldi  0.2179749    
 max taucldw  8.2571805E-06
 Switching is not necessary as we are already
 in the right domain!
 GIGC_Chunk_Run: Running for in-PET grid #           1
 GIGC_Chunk_Run: Received new grid IM, JM, LM =          15           9
          49
 =================================================
 W R F - G C   T I M E R S
    Domain           1 (Units: s)
 =================================================
  => Coupler Component                       1.016
   -- Physics & Parameterization             0.245
   -- Diagnostics Out                        0.000
  => GEOS-Chem Column                      184.184
  ===> Total Chemistry                     185.200
  => WRF                                   475.433
  ===> Total WRF-GC                        660.633
 max optd  3.1803609E+35
 max taucldi  0.2247798    
 max taucldw  8.4294643E-06
 Switching is not necessary as we are already
 in the right domain!
 GIGC_Chunk_Run: Running for in-PET grid #           1
 GIGC_Chunk_Run: Received new grid IM, JM, LM =          15           9
          49
 =================================================
 W R F - G C   T I M E R S
    Domain           1 (Units: s)
 =================================================
  => Coupler Component                       1.062
   -- Physics & Parameterization             0.254
   -- Diagnostics Out                        0.000
  => GEOS-Chem Column                      185.226
  ===> Total Chemistry                     186.288
  => WRF                                   493.525
  ===> Total WRF-GC                        679.814
 max optd  3.1803609E+35
 max taucldi  0.2248527    
 max taucldw  8.5974398E-06
 Switching is not necessary as we are already
 in the right domain!
 GIGC_Chunk_Run: Running for in-PET grid #           1
 GIGC_Chunk_Run: Received new grid IM, JM, LM =          15           9
          49
 =================================================
 W R F - G C   T I M E R S
    Domain           1 (Units: s)
 =================================================
  => Coupler Component                       1.102
   -- Physics & Parameterization             0.263
   -- Diagnostics Out                        0.000
  => GEOS-Chem Column                      186.296
  ===> Total Chemistry                     187.398
  => WRF                                   511.648
  ===> Total WRF-GC                        699.045
 max optd  3.1803609E+35
 max taucldi  0.2303707    
 max taucldw  8.8193783E-06
 Switching is not necessary as we are already
 in the right domain!
 GIGC_Chunk_Run: Running for in-PET grid #           1
 GIGC_Chunk_Run: Received new grid IM, JM, LM =          15           9
          49
 =================================================
 W R F - G C   T I M E R S
    Domain           1 (Units: s)
 =================================================
  => Coupler Component                       1.147
   -- Physics & Parameterization             0.273
   -- Diagnostics Out                        0.000
  => GEOS-Chem Column                      187.344
  ===> Total Chemistry                     188.491
  => WRF                                   529.772
  ===> Total WRF-GC                        718.264
 max optd  3.1803609E+35
 max taucldi  0.2506242    
 max taucldw  9.0462054E-06
 Switching is not necessary as we are already
 in the right domain!
 GIGC_Chunk_Run: Running for in-PET grid #           1
 GIGC_Chunk_Run: Received new grid IM, JM, LM =          15           9
          49
 =================================================
 W R F - G C   T I M E R S
    Domain           1 (Units: s)
 =================================================
  => Coupler Component                       1.186
   -- Physics & Parameterization             0.282
   -- Diagnostics Out                        0.000
  => GEOS-Chem Column                      188.424
  ===> Total Chemistry                     189.610
  => WRF                                   547.903
  ===> Total WRF-GC                        737.513
 max optd  3.1803609E+35
 max taucldi  0.2767928    
 max taucldw  9.2481441E-06
 Switching is not necessary as we are already
 in the right domain!
 GIGC_Chunk_Run: Running for in-PET grid #           1
 GIGC_Chunk_Run: Received new grid IM, JM, LM =          15           9
          49
 =================================================
 W R F - G C   T I M E R S
    Domain           1 (Units: s)
 =================================================
  => Coupler Component                       1.228
   -- Physics & Parameterization             0.292
   -- Diagnostics Out                        0.000
  => GEOS-Chem Column                      189.484
  ===> Total Chemistry                     190.713
  => WRF                                   566.022
  ===> Total WRF-GC                        756.735
 max optd  3.1803609E+35
 max taucldi  0.2943866    
 max taucldw  9.4119005E-06
 Switching is not necessary as we are already
 in the right domain!
 GIGC_Chunk_Run: Running for in-PET grid #           1
 GIGC_Chunk_Run: Received new grid IM, JM, LM =          15           9
          49
 =================================================
 W R F - G C   T I M E R S
    Domain           1 (Units: s)
 =================================================
  => Coupler Component                       1.270
   -- Physics & Parameterization             0.301
   -- Diagnostics Out                        0.000
  => GEOS-Chem Column                      190.551
  ===> Total Chemistry                     191.822
  => WRF                                   584.095
  ===> Total WRF-GC                        775.917
 max optd  3.1803609E+35
 max taucldi  0.3037680    
 max taucldw  9.5614450E-06
 Switching is not necessary as we are already
 in the right domain!
 GIGC_Chunk_Run: Running for in-PET grid #           1
 GIGC_Chunk_Run: Received new grid IM, JM, LM =          15           9
          49
 =================================================
 W R F - G C   T I M E R S
    Domain           1 (Units: s)
 =================================================
  => Coupler Component                       1.315
   -- Physics & Parameterization             0.310
   -- Diagnostics Out                        0.000
  => GEOS-Chem Column                      191.607
  ===> Total Chemistry                     192.922
  => WRF                                   602.175
  ===> Total WRF-GC                        795.097
 max optd  3.1803609E+35
 max taucldi  0.3158714    
 max taucldw  9.7170314E-06
 Switching is not necessary as we are already
 in the right domain!
 GIGC_Chunk_Run: Running for in-PET grid #           1
 GIGC_Chunk_Run: Received new grid IM, JM, LM =          15           9
          49
 =================================================
 W R F - G C   T I M E R S
    Domain           1 (Units: s)
 =================================================
  => Coupler Component                       1.361
   -- Physics & Parameterization             0.320
   -- Diagnostics Out                        0.000
  => GEOS-Chem Column                      192.660
  ===> Total Chemistry                     194.021
  => WRF                                   620.312
  ===> Total WRF-GC                        814.333
 max optd  3.1803609E+35
 max taucldi  0.3234771    
 max taucldw  9.8534629E-06
 Switching is not necessary as we are already
 in the right domain!
 GIGC_Chunk_Run: Running for in-PET grid #           1
 GIGC_Chunk_Run: Received new grid IM, JM, LM =          15           9
          49
 =================================================
 W R F - G C   T I M E R S
    Domain           1 (Units: s)
 =================================================
  => Coupler Component                       1.404
   -- Physics & Parameterization             0.329
   -- Diagnostics Out                        0.000
  => GEOS-Chem Column                      193.713
  ===> Total Chemistry                     195.117
  => WRF                                   638.365
  ===> Total WRF-GC                        833.482
 max optd  3.1803609E+35
 max taucldi  0.3267130    
 max taucldw  9.9638273E-06
 Switching is not necessary as we are already
 in the right domain!
 GIGC_Chunk_Run: Running for in-PET grid #           1
 GIGC_Chunk_Run: Received new grid IM, JM, LM =          15           9
          49
 =================================================
 W R F - G C   T I M E R S
    Domain           1 (Units: s)
 =================================================
  => Coupler Component                       1.445
   -- Physics & Parameterization             0.339
   -- Diagnostics Out                        0.000
  => GEOS-Chem Column                      194.782
  ===> Total Chemistry                     196.227
  => WRF                                   656.441
  ===> Total WRF-GC                        852.669
 HOURLY EMISSIONS UPDATE TIME    10800.0       0.0
mediation_integrate: med_read_wrf_chem_emissions: Read emissions for time 2018-01-01_03:00:00
 max optd  3.1803609E+35
 max taucldi  0.3367927    
 max taucldw  1.0066670E-05
 Switching is not necessary as we are already
 in the right domain!
 GIGC_Chunk_Run: Running for in-PET grid #           1
 GIGC_Chunk_Run: Received new grid IM, JM, LM =          15           9
          49
 =================================================
 W R F - G C   T I M E R S
    Domain           1 (Units: s)
 =================================================
  => Coupler Component                       1.488
   -- Physics & Parameterization             0.348
   -- Diagnostics Out                        0.000
  => GEOS-Chem Column                      195.839
  ===> Total Chemistry                     197.327
  => WRF                                   674.552
  ===> Total WRF-GC                        871.879
 max optd  3.1803609E+35
 max taucldi  0.3741280    
 max taucldw  1.0185503E-05
 Switching is not necessary as we are already
 in the right domain!
 GIGC_Chunk_Run: Running for in-PET grid #           1
 GIGC_Chunk_Run: Received new grid IM, JM, LM =          15           9
          49
 =================================================
 W R F - G C   T I M E R S
    Domain           1 (Units: s)
 =================================================
  => Coupler Component                       1.527
   -- Physics & Parameterization             0.358
   -- Diagnostics Out                        0.000
  => GEOS-Chem Column                      196.913
  ===> Total Chemistry                     198.440
  => WRF                                   692.630
  ===> Total WRF-GC                        891.070
 max optd  3.1803609E+35
 max taucldi  0.4112074    
 max taucldw  1.0308326E-05
 Switching is not necessary as we are already
 in the right domain!
 GIGC_Chunk_Run: Running for in-PET grid #           1
 GIGC_Chunk_Run: Received new grid IM, JM, LM =          15           9
          49
 =================================================
 W R F - G C   T I M E R S
    Domain           1 (Units: s)
 =================================================
  => Coupler Component                       1.572
   -- Physics & Parameterization             0.367
   -- Diagnostics Out                        0.000
  => GEOS-Chem Column                      197.962
  ===> Total Chemistry                     199.534
  => WRF                                   710.712
  ===> Total WRF-GC                        910.246
 max optd  3.1803609E+35
 max taucldi  0.4378439    
 max taucldw  1.0414760E-05
 Switching is not necessary as we are already
 in the right domain!
 GIGC_Chunk_Run: Running for in-PET grid #           1
 GIGC_Chunk_Run: Received new grid IM, JM, LM =          15           9
          49
 =================================================
 W R F - G C   T I M E R S
    Domain           1 (Units: s)
 =================================================
  => Coupler Component                       1.612
   -- Physics & Parameterization             0.376
   -- Diagnostics Out                        0.000
  => GEOS-Chem Column                      199.027
  ===> Total Chemistry                     200.639
  => WRF                                   728.798
  ===> Total WRF-GC                        929.437
 max optd  3.1803609E+35
 max taucldi  0.4774677    
 max taucldw  1.0496062E-05
 Switching is not necessary as we are already
 in the right domain!
 GIGC_Chunk_Run: Running for in-PET grid #           1
 GIGC_Chunk_Run: Received new grid IM, JM, LM =          15           9
          49
 =================================================
 W R F - G C   T I M E R S
    Domain           1 (Units: s)
 =================================================
  => Coupler Component                       1.654
   -- Physics & Parameterization             0.386
   -- Diagnostics Out                        0.000
  => GEOS-Chem Column                      200.091
  ===> Total Chemistry                     201.745
  => WRF                                   746.850
  ===> Total WRF-GC                        948.595
 max optd  3.1803609E+35
 max taucldi  0.5116018    
 max taucldw  1.0552308E-05
 Switching is not necessary as we are already
 in the right domain!
 GIGC_Chunk_Run: Running for in-PET grid #           1
 GIGC_Chunk_Run: Received new grid IM, JM, LM =          15           9
          49
 =================================================
 W R F - G C   T I M E R S
    Domain           1 (Units: s)
 =================================================
  => Coupler Component                       1.693
   -- Physics & Parameterization             0.396
   -- Diagnostics Out                        0.000
  => GEOS-Chem Column                      201.167
  ===> Total Chemistry                     202.860
  => WRF                                   765.187
  ===> Total WRF-GC                        968.047
 max optd  3.1803609E+35
 max taucldi  0.5415142    
 max taucldw  1.0569453E-05
 Switching is not necessary as we are already
 in the right domain!
 GIGC_Chunk_Run: Running for in-PET grid #           1
 GIGC_Chunk_Run: Received new grid IM, JM, LM =          15           9
          49
 =================================================
 W R F - G C   T I M E R S
    Domain           1 (Units: s)
 =================================================
  => Coupler Component                       1.740
   -- Physics & Parameterization             0.405
   -- Diagnostics Out                        0.000
  => GEOS-Chem Column                      202.222
  ===> Total Chemistry                     203.962
  => WRF                                   783.335
  ===> Total WRF-GC                        987.297
 max optd  3.1803609E+35
 max taucldi  0.5813360    
 max taucldw  1.0649094E-05
 Switching is not necessary as we are already
 in the right domain!
 GIGC_Chunk_Run: Running for in-PET grid #           1
 GIGC_Chunk_Run: Received new grid IM, JM, LM =          15           9
          49
 =================================================
 W R F - G C   T I M E R S
    Domain           1 (Units: s)
 =================================================
  => Coupler Component                       1.783
   -- Physics & Parameterization             0.414
   -- Diagnostics Out                        0.000
  => GEOS-Chem Column                      203.286
  ===> Total Chemistry                     205.069
  => WRF                                   801.345
  ===> Total WRF-GC                       1006.414
 max optd  3.1803609E+35
 max taucldi  0.6228858    
 max taucldw  1.0846226E-05
 Switching is not necessary as we are already
 in the right domain!
 GIGC_Chunk_Run: Running for in-PET grid #           1
 GIGC_Chunk_Run: Received new grid IM, JM, LM =          15           9
          49
 =================================================
 W R F - G C   T I M E R S
    Domain           1 (Units: s)
 =================================================
  => Coupler Component                       1.824
   -- Physics & Parameterization             0.424
   -- Diagnostics Out                        0.000
  => GEOS-Chem Column                      204.356
  ===> Total Chemistry                     206.180
  => WRF                                   819.560
  ===> Total WRF-GC                       1025.740
 max optd  3.1803609E+35
 max taucldi  0.6561580    
 max taucldw  1.1011439E-05
 Switching is not necessary as we are already
 in the right domain!
 GIGC_Chunk_Run: Running for in-PET grid #           1
 GIGC_Chunk_Run: Received new grid IM, JM, LM =          15           9
          49
 =================================================
 W R F - G C   T I M E R S
    Domain           1 (Units: s)
 =================================================
  => Coupler Component                       1.867
   -- Physics & Parameterization             0.433
   -- Diagnostics Out                        0.000
  => GEOS-Chem Column                      205.421
  ===> Total Chemistry                     207.289
  => WRF                                   837.681
  ===> Total WRF-GC                       1044.969
 max optd  3.1803609E+35
 max taucldi  0.6750520    
 max taucldw  1.1094427E-05
 Switching is not necessary as we are already
 in the right domain!
 GIGC_Chunk_Run: Running for in-PET grid #           1
 GIGC_Chunk_Run: Received new grid IM, JM, LM =          15           9
          49
 =================================================
 W R F - G C   T I M E R S
    Domain           1 (Units: s)
 =================================================
  => Coupler Component                       1.908
   -- Physics & Parameterization             0.443
   -- Diagnostics Out                        0.000
  => GEOS-Chem Column                      206.504
  ===> Total Chemistry                     208.412
  => WRF                                   855.752
  ===> Total WRF-GC                       1064.164
 max optd  3.1803609E+35
 max taucldi  0.6687678    
 max taucldw  1.1108662E-05
 Switching is not necessary as we are already
 in the right domain!
 GIGC_Chunk_Run: Running for in-PET grid #           1
 GIGC_Chunk_Run: Received new grid IM, JM, LM =          15           9
          49
 =================================================
 W R F - G C   T I M E R S
    Domain           1 (Units: s)
 =================================================
  => Coupler Component                       1.949
   -- Physics & Parameterization             0.452
   -- Diagnostics Out                        0.000
  => GEOS-Chem Column                      207.572
  ===> Total Chemistry                     209.522
  => WRF                                   873.873
  ===> Total WRF-GC                       1083.395
 HOURLY EMISSIONS UPDATE TIME    14400.0       0.0
mediation_integrate: med_read_wrf_chem_emissions: Read emissions for time 2018-01-01_04:00:00
 max optd  3.1803609E+35
 max taucldi  0.6684359    
 max taucldw  1.1423241E-05
 Switching is not necessary as we are already
 in the right domain!
 GIGC_Chunk_Run: Running for in-PET grid #           1
 GIGC_Chunk_Run: Received new grid IM, JM, LM =          15           9
          49
 =================================================
 W R F - G C   T I M E R S
    Domain           1 (Units: s)
 =================================================
  => Coupler Component                       1.994
   -- Physics & Parameterization             0.462
   -- Diagnostics Out                        0.000
  => GEOS-Chem Column                      208.633
  ===> Total Chemistry                     210.627
  => WRF                                   891.986
  ===> Total WRF-GC                       1102.612
 max optd  3.1803609E+35
 max taucldi  0.6647217    
 max taucldw  1.1746643E-05
 Switching is not necessary as we are already
 in the right domain!
 GIGC_Chunk_Run: Running for in-PET grid #           1
 GIGC_Chunk_Run: Received new grid IM, JM, LM =          15           9
          49
 =================================================
 W R F - G C   T I M E R S
    Domain           1 (Units: s)
 =================================================
  => Coupler Component                       2.035
   -- Physics & Parameterization             0.471
   -- Diagnostics Out                        0.000
  => GEOS-Chem Column                      209.695
  ===> Total Chemistry                     211.730
  => WRF                                   910.113
  ===> Total WRF-GC                       1121.843
 max optd  3.1803609E+35
 max taucldi  0.6763476    
 max taucldw  1.1971072E-05
 Switching is not necessary as we are already
 in the right domain!
 GIGC_Chunk_Run: Running for in-PET grid #           1
 GIGC_Chunk_Run: Received new grid IM, JM, LM =          15           9
          49
 =================================================
 W R F - G C   T I M E R S
    Domain           1 (Units: s)
 =================================================
  => Coupler Component                       2.079
   -- Physics & Parameterization             0.481
   -- Diagnostics Out                        0.000
  => GEOS-Chem Column                      210.762
  ===> Total Chemistry                     212.840
  => WRF                                   928.321
  ===> Total WRF-GC                       1141.162
 max optd  3.1803609E+35
 max taucldi  0.6760649    
 max taucldw  1.2109116E-05
 Switching is not necessary as we are already
 in the right domain!
 GIGC_Chunk_Run: Running for in-PET grid #           1
 GIGC_Chunk_Run: Received new grid IM, JM, LM =          15           9
          49
 =================================================
 W R F - G C   T I M E R S
    Domain           1 (Units: s)
 =================================================
  => Coupler Component                       2.124
   -- Physics & Parameterization             0.490
   -- Diagnostics Out                        0.000
  => GEOS-Chem Column                      211.815
  ===> Total Chemistry                     213.940
  => WRF                                   946.420
  ===> Total WRF-GC                       1160.359
 max optd  3.1803609E+35
 max taucldi  0.6654099    
 max taucldw  1.2139636E-05
 Switching is not necessary as we are already
 in the right domain!
 GIGC_Chunk_Run: Running for in-PET grid #           1
 GIGC_Chunk_Run: Received new grid IM, JM, LM =          15           9
          49
 =================================================
 W R F - G C   T I M E R S
    Domain           1 (Units: s)
 =================================================
  => Coupler Component                       2.169
   -- Physics & Parameterization             0.500
   -- Diagnostics Out                        0.000
  => GEOS-Chem Column                      212.872
  ===> Total Chemistry                     215.041
  => WRF                                   964.579
  ===> Total WRF-GC                       1179.619
 max optd  3.1803609E+35
 max taucldi  0.6508909    
 max taucldw  1.2139752E-05
 Switching is not necessary as we are already
 in the right domain!
 GIGC_Chunk_Run: Running for in-PET grid #           1
 GIGC_Chunk_Run: Received new grid IM, JM, LM =          15           9
          49
 =================================================
 W R F - G C   T I M E R S
    Domain           1 (Units: s)
 =================================================
  => Coupler Component                       2.214
   -- Physics & Parameterization             0.510
   -- Diagnostics Out                        0.000
  => GEOS-Chem Column                      213.924
  ===> Total Chemistry                     216.138
  => WRF                                   982.699
  ===> Total WRF-GC                       1198.837
 max optd  3.1803609E+35
 max taucldi  0.6657459    
 max taucldw  1.2131759E-05
 Switching is not necessary as we are already
 in the right domain!
 GIGC_Chunk_Run: Running for in-PET grid #           1
 GIGC_Chunk_Run: Received new grid IM, JM, LM =          15           9
          49
 =================================================
 W R F - G C   T I M E R S
    Domain           1 (Units: s)
 =================================================
  => Coupler Component                       2.253
   -- Physics & Parameterization             0.519
   -- Diagnostics Out                        0.000
  => GEOS-Chem Column                      215.004
  ===> Total Chemistry                     217.256
  => WRF                                  1000.881
  ===> Total WRF-GC                       1218.137
 max optd  3.1803609E+35
 max taucldi  0.6722535    
 max taucldw  1.2040131E-05
 Switching is not necessary as we are already
 in the right domain!
 GIGC_Chunk_Run: Running for in-PET grid #           1
 GIGC_Chunk_Run: Received new grid IM, JM, LM =          15           9
          49
 =================================================
 W R F - G C   T I M E R S
    Domain           1 (Units: s)
 =================================================
  => Coupler Component                       2.295
   -- Physics & Parameterization             0.528
   -- Diagnostics Out                        0.000
  => GEOS-Chem Column                      216.064
  ===> Total Chemistry                     218.359
  => WRF                                  1018.962
  ===> Total WRF-GC                       1237.321
 max optd  3.1803609E+35
 max taucldi  0.6882014    
 max taucldw  1.2065731E-05
 Switching is not necessary as we are already
 in the right domain!
 GIGC_Chunk_Run: Running for in-PET grid #           1
 GIGC_Chunk_Run: Received new grid IM, JM, LM =          15           9
          49
 =================================================
 W R F - G C   T I M E R S
    Domain           1 (Units: s)
 =================================================
  => Coupler Component                       2.336
   -- Physics & Parameterization             0.538
   -- Diagnostics Out                        0.000
  => GEOS-Chem Column                      217.130
  ===> Total Chemistry                     219.466
  => WRF                                  1037.098
  ===> Total WRF-GC                       1256.565
 max optd  3.1803609E+35
 max taucldi  0.7037351    
 max taucldw  1.2120914E-05
 Switching is not necessary as we are already
 in the right domain!
 GIGC_Chunk_Run: Running for in-PET grid #           1
 GIGC_Chunk_Run: Received new grid IM, JM, LM =          15           9
          49
 =================================================
 W R F - G C   T I M E R S
    Domain           1 (Units: s)
 =================================================
  => Coupler Component                       2.378
   -- Physics & Parameterization             0.547
   -- Diagnostics Out                        0.000
  => GEOS-Chem Column                      218.193
  ===> Total Chemistry                     220.571
  => WRF                                  1055.195
  ===> Total WRF-GC                       1275.765
 max optd  3.1803609E+35
 max taucldi  0.7101188    
 max taucldw  1.2079555E-05
 Switching is not necessary as we are already
 in the right domain!
 GIGC_Chunk_Run: Running for in-PET grid #           1
 GIGC_Chunk_Run: Received new grid IM, JM, LM =          15           9
          49
 =================================================
 W R F - G C   T I M E R S
    Domain           1 (Units: s)
 =================================================
  => Coupler Component                       2.419
   -- Physics & Parameterization             0.556
   -- Diagnostics Out                        0.000
  => GEOS-Chem Column                      219.274
  ===> Total Chemistry                     221.693
  => WRF                                  1073.284
  ===> Total WRF-GC                       1294.977
 max optd  3.1803609E+35
 max taucldi  0.6952529    
 max taucldw  1.2027459E-05
 Switching is not necessary as we are already
 in the right domain!
 GIGC_Chunk_Run: Running for in-PET grid #           1
 GIGC_Chunk_Run: Received new grid IM, JM, LM =          15           9
          49
 =================================================
 W R F - G C   T I M E R S
    Domain           1 (Units: s)
 =================================================
  => Coupler Component                       2.463
   -- Physics & Parameterization             0.566
   -- Diagnostics Out                        0.000
  => GEOS-Chem Column                      220.327
  ===> Total Chemistry                     222.790
  => WRF                                  1091.316
  ===> Total WRF-GC                       1314.105
 HOURLY EMISSIONS UPDATE TIME    18000.0       0.0
mediation_integrate: med_read_wrf_chem_emissions: Read emissions for time 2018-01-01_05:00:00
 max optd  3.1803609E+35
 max taucldi  0.6637625    
 max taucldw  1.2077039E-05
 Switching is not necessary as we are already
 in the right domain!
 GIGC_Chunk_Run: Running for in-PET grid #           1
 GIGC_Chunk_Run: Received new grid IM, JM, LM =          15           9
          49
 =================================================
 W R F - G C   T I M E R S
    Domain           1 (Units: s)
 =================================================
  => Coupler Component                       2.502
   -- Physics & Parameterization             0.576
   -- Diagnostics Out                        0.000
  => GEOS-Chem Column                      221.398
  ===> Total Chemistry                     223.899
  => WRF                                  1109.480
  ===> Total WRF-GC                       1333.379
 max optd  3.1803609E+35
 max taucldi  0.6268879    
 max taucldw  1.2090873E-05
 Switching is not necessary as we are already
 in the right domain!
 GIGC_Chunk_Run: Running for in-PET grid #           1
 GIGC_Chunk_Run: Received new grid IM, JM, LM =          15           9
          49
 =================================================
 W R F - G C   T I M E R S
    Domain           1 (Units: s)
 =================================================
  => Coupler Component                       2.546
   -- Physics & Parameterization             0.585
   -- Diagnostics Out                        0.000
  => GEOS-Chem Column                      222.457
  ===> Total Chemistry                     225.004
  => WRF                                  1127.557
  ===> Total WRF-GC                       1352.561
 max optd  3.1803609E+35
 max taucldi  0.5789722    
 max taucldw  1.2086060E-05
 Switching is not necessary as we are already
 in the right domain!
 GIGC_Chunk_Run: Running for in-PET grid #           1
 GIGC_Chunk_Run: Received new grid IM, JM, LM =          15           9
          49
 =================================================
 W R F - G C   T I M E R S
    Domain           1 (Units: s)
 =================================================
  => Coupler Component                       2.588
   -- Physics & Parameterization             0.595
   -- Diagnostics Out                        0.000
  => GEOS-Chem Column                      223.526
  ===> Total Chemistry                     226.113
  => WRF                                  1145.649
  ===> Total WRF-GC                       1371.762
 max optd  3.1803609E+35
 max taucldi  0.5410423    
 max taucldw  1.2084341E-05
 Switching is not necessary as we are already
 in the right domain!
 GIGC_Chunk_Run: Running for in-PET grid #           1
 GIGC_Chunk_Run: Received new grid IM, JM, LM =          15           9
          49
 =================================================
 W R F - G C   T I M E R S
    Domain           1 (Units: s)
 =================================================
  => Coupler Component                       2.630
   -- Physics & Parameterization             0.604
   -- Diagnostics Out                        0.000
  => GEOS-Chem Column                      224.597
  ===> Total Chemistry                     227.226
  => WRF                                  1163.763
  ===> Total WRF-GC                       1390.990
 max optd  3.1803609E+35
 max taucldi  0.5189167    
 max taucldw  1.2085631E-05
 Switching is not necessary as we are already
 in the right domain!
 GIGC_Chunk_Run: Running for in-PET grid #           1
 GIGC_Chunk_Run: Received new grid IM, JM, LM =          15           9
          49
 =================================================
 W R F - G C   T I M E R S
    Domain           1 (Units: s)
 =================================================
  => Coupler Component                       2.666
   -- Physics & Parameterization             0.613
   -- Diagnostics Out                        0.000
  => GEOS-Chem Column                      225.675
  ===> Total Chemistry                     228.341
  => WRF                                  1181.926
  ===> Total WRF-GC                       1410.267
 max optd  3.1803609E+35
 max taucldi  0.4879235    
 max taucldw  1.2075246E-05
 Switching is not necessary as we are already
 in the right domain!
 GIGC_Chunk_Run: Running for in-PET grid #           1
 GIGC_Chunk_Run: Received new grid IM, JM, LM =          15           9
          49
 =================================================
 W R F - G C   T I M E R S
    Domain           1 (Units: s)
 =================================================
  => Coupler Component                       2.709
   -- Physics & Parameterization             0.623
   -- Diagnostics Out                        0.000
  => GEOS-Chem Column                      226.743
  ===> Total Chemistry                     229.452
  => WRF                                  1199.990
  ===> Total WRF-GC                       1429.442
 max optd  3.1803609E+35
 max taucldi  0.4640476    
 max taucldw  1.2038418E-05
 Switching is not necessary as we are already
 in the right domain!
 GIGC_Chunk_Run: Running for in-PET grid #           1
 GIGC_Chunk_Run: Received new grid IM, JM, LM =          15           9
          49
 =================================================
 W R F - G C   T I M E R S
    Domain           1 (Units: s)
 =================================================
  => Coupler Component                       2.748
   -- Physics & Parameterization             0.632
   -- Diagnostics Out                        0.000
  => GEOS-Chem Column                      227.808
  ===> Total Chemistry                     230.555
  => WRF                                  1218.163
  ===> Total WRF-GC                       1448.718
 max optd  3.1803609E+35
 max taucldi  0.4564811    
 max taucldw  1.1974023E-05
 Switching is not necessary as we are already
 in the right domain!
 GIGC_Chunk_Run: Running for in-PET grid #           1
 GIGC_Chunk_Run: Received new grid IM, JM, LM =          15           9
          49
 =================================================
 W R F - G C   T I M E R S
    Domain           1 (Units: s)
 =================================================
  => Coupler Component                       2.791
   -- Physics & Parameterization             0.642
   -- Diagnostics Out                        0.000
  => GEOS-Chem Column                      228.864
  ===> Total Chemistry                     231.655
  => WRF                                  1236.260
  ===> Total WRF-GC                       1467.915
 max optd  3.1803609E+35
 max taucldi  0.4439026    
 max taucldw  1.1884496E-05
 Switching is not necessary as we are already
 in the right domain!
 GIGC_Chunk_Run: Running for in-PET grid #           1
 GIGC_Chunk_Run: Received new grid IM, JM, LM =          15           9
          49
 =================================================
 W R F - G C   T I M E R S
    Domain           1 (Units: s)
 =================================================
  => Coupler Component                       2.832
   -- Physics & Parameterization             0.651
   -- Diagnostics Out                        0.000
  => GEOS-Chem Column                      229.929
  ===> Total Chemistry                     232.761
  => WRF                                  1254.420
  ===> Total WRF-GC                       1487.181
 max optd  3.1803609E+35
 max taucldi  0.4210830    
 max taucldw  1.1791537E-05
 Switching is not necessary as we are already
 in the right domain!
 GIGC_Chunk_Run: Running for in-PET grid #           1
 GIGC_Chunk_Run: Received new grid IM, JM, LM =          15           9
          49
 =================================================
 W R F - G C   T I M E R S
    Domain           1 (Units: s)
 =================================================
  => Coupler Component                       2.874
   -- Physics & Parameterization             0.661
   -- Diagnostics Out                        0.000
  => GEOS-Chem Column                      230.999
  ===> Total Chemistry                     233.872
  => WRF                                  1272.803
  ===> Total WRF-GC                       1506.675
 max optd  3.1803609E+35
 max taucldi  0.4033825    
 max taucldw  1.1684045E-05
 Switching is not necessary as we are already
 in the right domain!
 GIGC_Chunk_Run: Running for in-PET grid #           1
 GIGC_Chunk_Run: Received new grid IM, JM, LM =          15           9
          49
 =================================================
 W R F - G C   T I M E R S
    Domain           1 (Units: s)
 =================================================
  => Coupler Component                       2.918
   -- Physics & Parameterization             0.671
   -- Diagnostics Out                        0.000
  => GEOS-Chem Column                      232.060
  ===> Total Chemistry                     234.978
  => WRF                                  1290.913
  ===> Total WRF-GC                       1525.892
 max optd  3.1803609E+35
 max taucldi  0.3830419    
 max taucldw  1.1656162E-05
 Switching is not necessary as we are already
 in the right domain!
 GIGC_Chunk_Run: Running for in-PET grid #           1
 GIGC_Chunk_Run: Received new grid IM, JM, LM =          15           9
          49
 =================================================
 W R F - G C   T I M E R S
    Domain           1 (Units: s)
 =================================================
  => Coupler Component                       2.952
   -- Physics & Parameterization             0.680
   -- Diagnostics Out                        0.000
  => GEOS-Chem Column                      233.134
  ===> Total Chemistry                     236.085
  => WRF                                  1309.030
  ===> Total WRF-GC                       1545.115
 HOURLY EMISSIONS UPDATE TIME    21600.0       0.0
mediation_integrate: med_read_wrf_chem_emissions: Read emissions for time 2018-01-01_06:00:00
 max optd  3.1803609E+35
 max taucldi  0.3594260    
 max taucldw  1.1991064E-05
 Switching is not necessary as we are already
 in the right domain!
 GIGC_Chunk_Run: Running for in-PET grid #           1
 GIGC_Chunk_Run: Received new grid IM, JM, LM =          15           9
          49
 =================================================
 W R F - G C   T I M E R S
    Domain           1 (Units: s)
 =================================================
  => Coupler Component                       2.992
   -- Physics & Parameterization             0.689
   -- Diagnostics Out                        0.000
  => GEOS-Chem Column                      234.205
  ===> Total Chemistry                     237.196
  => WRF                                  1767.688
  ===> Total WRF-GC                       2004.884
 max optd  3.1803609E+35
 max taucldi  0.3316436    
 max taucldw  1.2285931E-05
 Switching is not necessary as we are already
 in the right domain!
 GIGC_Chunk_Run: Running for in-PET grid #           1
 GIGC_Chunk_Run: Received new grid IM, JM, LM =          15           9
          49
 =================================================
 W R F - G C   T I M E R S
    Domain           1 (Units: s)
 =================================================
  => Coupler Component                       3.035
   -- Physics & Parameterization             0.699
   -- Diagnostics Out                        0.000
  => GEOS-Chem Column                      235.266
  ===> Total Chemistry                     238.302
  => WRF                                  1785.810
  ===> Total WRF-GC                       2024.111
 max optd  3.1803609E+35
 max taucldi  0.3042946    
 max taucldw  1.2545226E-05
 Switching is not necessary as we are already
 in the right domain!
 GIGC_Chunk_Run: Running for in-PET grid #           1
 GIGC_Chunk_Run: Received new grid IM, JM, LM =          15           9
          49
 =================================================
 W R F - G C   T I M E R S
    Domain           1 (Units: s)
 =================================================
  => Coupler Component                       3.074
   -- Physics & Parameterization             0.708
   -- Diagnostics Out                        0.000
  => GEOS-Chem Column                      236.333
  ===> Total Chemistry                     239.406
  => WRF                                  1804.076
  ===> Total WRF-GC                       2043.482
 max optd  3.1803609E+35
 max taucldi  0.2891524    
 max taucldw  1.2757632E-05
 Switching is not necessary as we are already
 in the right domain!
 GIGC_Chunk_Run: Running for in-PET grid #           1
 GIGC_Chunk_Run: Received new grid IM, JM, LM =          15           9
          49
 =================================================
 W R F - G C   T I M E R S
    Domain           1 (Units: s)
 =================================================
  => Coupler Component                       3.122
[...]
  => GEOS-Chem Column                      284.074
  ===> Total Chemistry                     289.120
  => WRF                                  2621.585
  ===> Total WRF-GC                       2910.705
 HOURLY EMISSIONS UPDATE TIME    36000.0       0.0
mediation_integrate: med_read_wrf_chem_emissions: Read emissions for time 2018-01-01_10:00:00
 max optd  3.1803609E+35
 max taucldi  0.5553672    
 max taucldw  1.8743905E-05
 Switching is not necessary as we are already
 in the right domain!
 GIGC_Chunk_Run: Running for in-PET grid #           1
 GIGC_Chunk_Run: Received new grid IM, JM, LM =          15           9
          49
 =================================================
 W R F - G C   T I M E R S
    Domain           1 (Units: s)
 =================================================
  => Coupler Component                       5.087
   -- Physics & Parameterization             1.146
   -- Diagnostics Out                        0.000
  => GEOS-Chem Column                      285.141
  ===> Total Chemistry                     290.229
  => WRF                                  2639.803
  ===> Total WRF-GC                       2930.031
 max optd  3.1803609E+35
 max taucldi  0.5572794    
 max taucldw  1.8805047E-05
 Switching is not necessary as we are already
 in the right domain!
 GIGC_Chunk_Run: Running for in-PET grid #           1
 GIGC_Chunk_Run: Received new grid IM, JM, LM =          15           9
          49
 =================================================
 W R F - G C   T I M E R S
    Domain           1 (Units: s)
 =================================================
  => Coupler Component                       5.129
   -- Physics & Parameterization             1.155
   -- Diagnostics Out                        0.000
  => GEOS-Chem Column                      286.208
  ===> Total Chemistry                     291.338
  => WRF                                  2657.940
  ===> Total WRF-GC                       2949.278
 max optd  3.1803609E+35
 max taucldi  0.5570680    
 max taucldw  1.8777098E-05
 Switching is not necessary as we are already
 in the right domain!
 GIGC_Chunk_Run: Running for in-PET grid #           1
 GIGC_Chunk_Run: Received new grid IM, JM, LM =          15           9
          49
 =================================================
 W R F - G C   T I M E R S
    Domain           1 (Units: s)
 =================================================
  => Coupler Component                       5.174
   -- Physics & Parameterization             1.165
   -- Diagnostics Out                        0.000
  => GEOS-Chem Column                      287.278
  ===> Total Chemistry                     292.452
  => WRF                                  2676.067
  ===> Total WRF-GC                       2968.519
 max optd  3.1803609E+35
 max taucldi  0.5533558    
 max taucldw  1.8675903E-05
 Switching is not necessary as we are already
 in the right domain!
 GIGC_Chunk_Run: Running for in-PET grid #           1
 GIGC_Chunk_Run: Received new grid IM, JM, LM =          15           9
          49
 =================================================
 W R F - G C   T I M E R S
    Domain           1 (Units: s)
 =================================================
  => Coupler Component                       5.224
   -- Physics & Parameterization             1.175
   -- Diagnostics Out                        0.000
  => GEOS-Chem Column                      288.321
  ===> Total Chemistry                     293.545
  => WRF                                  2694.277
  ===> Total WRF-GC                       2987.822
 max optd  3.1803609E+35
 max taucldi  0.5456194    
 max taucldw  1.8553688E-05
 Switching is not necessary as we are already
 in the right domain!
 GIGC_Chunk_Run: Running for in-PET grid #           1
 GIGC_Chunk_Run: Received new grid IM, JM, LM =          15           9
          49
 =================================================
 W R F - G C   T I M E R S
    Domain           1 (Units: s)
 =================================================
  => Coupler Component                       5.267
   -- Physics & Parameterization             1.184
   -- Diagnostics Out                        0.000
  => GEOS-Chem Column                      289.382
  ===> Total Chemistry                     294.649
  => WRF                                  2712.461
  ===> Total WRF-GC                       3007.110
 max optd  3.1803609E+35
 max taucldi  0.5370058    
 max taucldw  1.8433873E-05
 Switching is not necessary as we are already
 in the right domain!
 GIGC_Chunk_Run: Running for in-PET grid #           1
 GIGC_Chunk_Run: Received new grid IM, JM, LM =          15           9
          49
 =================================================
 W R F - G C   T I M E R S
    Domain           1 (Units: s)
 =================================================
  => Coupler Component                       5.311
   -- Physics & Parameterization             1.194
   -- Diagnostics Out                        0.000
  => GEOS-Chem Column                      290.439
  ===> Total Chemistry                     295.750
  => WRF                                  2730.552
  ===> Total WRF-GC                       3026.302
 max optd  3.1803609E+35
 max taucldi  0.5319020    
 max taucldw  1.8308840E-05
 Switching is not necessary as we are already
 in the right domain!
 GIGC_Chunk_Run: Running for in-PET grid #           1
 GIGC_Chunk_Run: Received new grid IM, JM, LM =          15           9
          49
 =================================================
 W R F - G C   T I M E R S
    Domain           1 (Units: s)
 =================================================
  => Coupler Component                       5.353
   -- Physics & Parameterization             1.203
   -- Diagnostics Out                        0.000
  => GEOS-Chem Column                      291.518
  ===> Total Chemistry                     296.871
  => WRF                                  2748.730
  ===> Total WRF-GC                       3045.602
 max optd  3.1803609E+35
 max taucldi  0.5362491    
 max taucldw  1.8167128E-05
 Switching is not necessary as we are already
 in the right domain!
 GIGC_Chunk_Run: Running for in-PET grid #           1
 GIGC_Chunk_Run: Received new grid IM, JM, LM =          15           9
          49
 =================================================
 W R F - G C   T I M E R S
    Domain           1 (Units: s)
 =================================================
  => Coupler Component                       5.397
   -- Physics & Parameterization             1.212
   -- Diagnostics Out                        0.000
  => GEOS-Chem Column                      292.579
  ===> Total Chemistry                     297.976
  => WRF                                  2766.864
  ===> Total WRF-GC                       3064.840
 max optd  3.1803609E+35
 max taucldi  0.5369790    
 max taucldw  1.8012708E-05
 Switching is not necessary as we are already
 in the right domain!
 GIGC_Chunk_Run: Running for in-PET grid #           1
 GIGC_Chunk_Run: Received new grid IM, JM, LM =          15           9
          49
 =================================================
 W R F - G C   T I M E R S
    Domain           1 (Units: s)
 =================================================
  => Coupler Component                       5.436
   -- Physics & Parameterization             1.222
   -- Diagnostics Out                        0.000
  => GEOS-Chem Column                      293.652
  ===> Total Chemistry                     299.089
  => WRF                                  2784.981
  ===> Total WRF-GC                       3084.070
 max optd  3.1803609E+35
 max taucldi  0.5296275    
 max taucldw  1.7842234E-05
 Switching is not necessary as we are already
 in the right domain!
 GIGC_Chunk_Run: Running for in-PET grid #           1
 GIGC_Chunk_Run: Received new grid IM, JM, LM =          15           9
          49
 =================================================
 W R F - G C   T I M E R S
    Domain           1 (Units: s)
 =================================================
  => Coupler Component                       5.479
   -- Physics & Parameterization             1.231
   -- Diagnostics Out                        0.000
  => GEOS-Chem Column                      294.721
  ===> Total Chemistry                     300.200
  => WRF                                  2803.180
  ===> Total WRF-GC                       3103.380
 max optd  3.1803609E+35
 max taucldi  0.5224118    
 max taucldw  1.7642704E-05
 Switching is not necessary as we are already
 in the right domain!
 GIGC_Chunk_Run: Running for in-PET grid #           1
 GIGC_Chunk_Run: Received new grid IM, JM, LM =          15           9
          49
 =================================================
 W R F - G C   T I M E R S
    Domain           1 (Units: s)
 =================================================
  => Coupler Component                       5.523
   -- Physics & Parameterization             1.241
   -- Diagnostics Out                        0.000
  => GEOS-Chem Column                      295.788
  ===> Total Chemistry                     301.310
  => WRF                                  2821.312
  ===> Total WRF-GC                       3122.623
 max optd  3.1803609E+35
 max taucldi  0.5114147    
 max taucldw  1.7386805E-05
 Switching is not necessary as we are already
 in the right domain!
 GIGC_Chunk_Run: Running for in-PET grid #           1
 GIGC_Chunk_Run: Received new grid IM, JM, LM =          15           9
          49
 =================================================
 W R F - G C   T I M E R S
    Domain           1 (Units: s)
 =================================================
  => Coupler Component                       5.575
   -- Physics & Parameterization             1.251
   -- Diagnostics Out                        0.000
  => GEOS-Chem Column                      296.826
  ===> Total Chemistry                     302.401
  => WRF                                  2839.484
  ===> Total WRF-GC                       3141.885
 HOURLY EMISSIONS UPDATE TIME    39600.0       0.0
mediation_integrate: med_read_wrf_chem_emissions: Read emissions for time 2018-01-01_11:00:00
 max optd  3.1803609E+35
 max taucldi  0.5030277    
 max taucldw  1.7060296E-05
 Switching is not necessary as we are already
 in the right domain!
 GIGC_Chunk_Run: Running for in-PET grid #           1
 GIGC_Chunk_Run: Received new grid IM, JM, LM =          15           9
          49
 =================================================
 W R F - G C   T I M E R S
    Domain           1 (Units: s)
 =================================================
  => Coupler Component                       5.618
   -- Physics & Parameterization             1.260
   -- Diagnostics Out                        0.000
  => GEOS-Chem Column                      297.888
  ===> Total Chemistry                     303.506
  => WRF                                  2857.683
  ===> Total WRF-GC                       3161.189
 max optd  3.1803609E+35
 max taucldi  0.5063823    
 max taucldw  1.6669450E-05
 Switching is not necessary as we are already
 in the right domain!
 GIGC_Chunk_Run: Running for in-PET grid #           1
 GIGC_Chunk_Run: Received new grid IM, JM, LM =          15           9
          49
 =================================================
 W R F - G C   T I M E R S
    Domain           1 (Units: s)
 =================================================
  => Coupler Component                       5.662
   -- Physics & Parameterization             1.269
   -- Diagnostics Out                        0.000
  => GEOS-Chem Column                      298.945
  ===> Total Chemistry                     304.607
  => WRF                                  2875.800
  ===> Total WRF-GC                       3180.407
 max optd  3.1803609E+35
 max taucldi  0.5034038    
 max taucldw  1.6218002E-05
 Switching is not necessary as we are already
 in the right domain!
 GIGC_Chunk_Run: Running for in-PET grid #           1
 GIGC_Chunk_Run: Received new grid IM, JM, LM =          15           9
          49
 =================================================
 W R F - G C   T I M E R S
    Domain           1 (Units: s)
 =================================================
  => Coupler Component                       5.701
   -- Physics & Parameterization             1.279
   -- Diagnostics Out                        0.000
  => GEOS-Chem Column                      300.024
  ===> Total Chemistry                     305.726
  => WRF                                  2894.030
  ===> Total WRF-GC                       3199.756
 max optd  3.1803609E+35
 max taucldi  0.4936719    
 max taucldw  1.6103240E-05
 Switching is not necessary as we are already
 in the right domain!
 GIGC_Chunk_Run: Running for in-PET grid #           1
 GIGC_Chunk_Run: Received new grid IM, JM, LM =          15           9
          49
 =================================================
 W R F - G C   T I M E R S
    Domain           1 (Units: s)
 =================================================
  => Coupler Component                       5.746
   -- Physics & Parameterization             1.288
   -- Diagnostics Out                        0.000
  => GEOS-Chem Column                      301.092
  ===> Total Chemistry                     306.838
  => WRF                                  2912.282
  ===> Total WRF-GC                       3219.120
 max optd  3.1803609E+35
 max taucldi  0.4815284    
 max taucldw  1.6174710E-05
 Switching is not necessary as we are already
 in the right domain!
 GIGC_Chunk_Run: Running for in-PET grid #           1
 GIGC_Chunk_Run: Received new grid IM, JM, LM =          15           9
          49
 =================================================
 W R F - G C   T I M E R S
    Domain           1 (Units: s)
 =================================================
  => Coupler Component                       5.788
   -- Physics & Parameterization             1.298
   -- Diagnostics Out                        0.000
  => GEOS-Chem Column                      302.161
  ===> Total Chemistry                     307.949
  => WRF                                  2930.682
  ===> Total WRF-GC                       3238.631
 max optd  3.1803609E+35
 max taucldi  0.4691964    
 max taucldw  1.6203745E-05
 Switching is not necessary as we are already
 in the right domain!
 GIGC_Chunk_Run: Running for in-PET grid #           1
 GIGC_Chunk_Run: Received new grid IM, JM, LM =          15           9
          49
 =================================================
 W R F - G C   T I M E R S
    Domain           1 (Units: s)
 =================================================
  => Coupler Component                       5.833
   -- Physics & Parameterization             1.307
   -- Diagnostics Out                        0.000
  => GEOS-Chem Column                      303.222
  ===> Total Chemistry                     309.055
  => WRF                                  2949.064
  ===> Total WRF-GC                       3258.119
 max optd  3.1803609E+35
 max taucldi  0.4580016    
 max taucldw  1.6253007E-05
 Switching is not necessary as we are already
 in the right domain!
 GIGC_Chunk_Run: Running for in-PET grid #           1
 GIGC_Chunk_Run: Received new grid IM, JM, LM =          15           9
          49
 =================================================
 W R F - G C   T I M E R S
    Domain           1 (Units: s)
 =================================================
  => Coupler Component                       5.875
   -- Physics & Parameterization             1.317
   -- Diagnostics Out                        0.000
  => GEOS-Chem Column                      304.293
  ===> Total Chemistry                     310.168
  => WRF                                  2967.587
  ===> Total WRF-GC                       3277.755
 max optd  3.1803609E+35
 max taucldi  0.4443221    
 max taucldw  1.6314458E-05
 Switching is not necessary as we are already
 in the right domain!
 GIGC_Chunk_Run: Running for in-PET grid #           1
 GIGC_Chunk_Run: Received new grid IM, JM, LM =          15           9
          49
 =================================================
 W R F - G C   T I M E R S
    Domain           1 (Units: s)
 =================================================
  => Coupler Component                       5.920
   -- Physics & Parameterization             1.326
   -- Diagnostics Out                        0.000
  => GEOS-Chem Column                      305.361
  ===> Total Chemistry                     311.282
  => WRF                                  2986.135
  ===> Total WRF-GC                       3297.416
 max optd  3.1803609E+35
 max taucldi  0.4257332    
 max taucldw  1.6362932E-05
 Switching is not necessary as we are already
 in the right domain!
 GIGC_Chunk_Run: Running for in-PET grid #           1
 GIGC_Chunk_Run: Received new grid IM, JM, LM =          15           9
          49
 =================================================
 W R F - G C   T I M E R S
    Domain           1 (Units: s)
 =================================================
  => Coupler Component                       5.964
   -- Physics & Parameterization             1.336
   -- Diagnostics Out                        0.000
  => GEOS-Chem Column                      306.419
  ===> Total Chemistry                     312.383
  => WRF                                  3004.805
  ===> Total WRF-GC                       3317.187
 max optd  3.1803609E+35
 max taucldi  0.4095264    
 max taucldw  1.6402406E-05
 Switching is not necessary as we are already
 in the right domain!
 GIGC_Chunk_Run: Running for in-PET grid #           1
 GIGC_Chunk_Run: Received new grid IM, JM, LM =          15           9
          49
 =================================================
 W R F - G C   T I M E R S
    Domain           1 (Units: s)
 =================================================
  => Coupler Component                       6.004
   -- Physics & Parameterization             1.345
   -- Diagnostics Out                        0.000
  => GEOS-Chem Column                      307.501
  ===> Total Chemistry                     313.505
  => WRF                                  3023.698
  ===> Total WRF-GC                       3337.203
 max optd  3.1803609E+35
 max taucldi  0.4074642    
 max taucldw  1.6438706E-05
 Switching is not necessary as we are already
 in the right domain!
 GIGC_Chunk_Run: Running for in-PET grid #           1
 GIGC_Chunk_Run: Received new grid IM, JM, LM =          15           9
          49
 =================================================
 W R F - G C   T I M E R S
    Domain           1 (Units: s)
 =================================================
  => Coupler Component                       6.042
   -- Physics & Parameterization             1.355
   -- Diagnostics Out                        0.000
  => GEOS-Chem Column                      308.550
  ===> Total Chemistry                     314.592
  => WRF                                  3042.477
  ===> Total WRF-GC                       3357.069
 max optd  3.1803609E+35
 max taucldi  0.4029048    
 max taucldw  1.6473199E-05
 Switching is not necessary as we are already
 in the right domain!
 GIGC_Chunk_Run: Running for in-PET grid #           1
 GIGC_Chunk_Run: Received new grid IM, JM, LM =          15           9
          49
 =================================================
 W R F - G C   T I M E R S
    Domain           1 (Units: s)
 =================================================
  => Coupler Component                       6.077
   -- Physics & Parameterization             1.365
   -- Diagnostics Out                        0.000
  => GEOS-Chem Column                      309.610
  ===> Total Chemistry                     315.687
  => WRF                                  3061.229
  ===> Total WRF-GC                       3376.916
d01 2018-01-01_12:00:00 wrf: SUCCESS COMPLETE WRF
